
---------- Begin Simulation Statistics ----------
final_tick                               176097537000                       # Number of ticks from beginning of simulation (restored from checkpoints and never reset)
host_inst_rate                                 457208                       # Simulator instruction rate (inst/s)
host_mem_usage                                 672644                       # Number of bytes of host memory used
host_op_rate                                   457224                       # Simulator op (including micro ops) rate (op/s)
host_seconds                                   218.72                       # Real time elapsed on the host
host_tick_rate                              805131526                       # Simulator tick rate (ticks/s)
sim_freq                                 1000000000000                       # Frequency of simulated ticks
sim_insts                                   100000000                       # Number of instructions simulated
sim_ops                                     100003630                       # Number of ops (including micro ops) simulated
sim_seconds                                  0.176098                       # Number of seconds simulated
sim_ticks                                176097537000                       # Number of ticks simulated
system.cpu.committedInsts                   100000000                       # Number of instructions committed
system.cpu.committedOps                     100003630                       # Number of ops (including micro ops) committed
system.cpu.cpi                               3.521951                       # CPI: cycles per instruction
system.cpu.discardedOps                         21222                       # Number of ops (including micro ops) which were discarded before commit
system.cpu.idleCycles                       234774040                       # Total number of cycles that the object has spent stopped
system.cpu.ipc                               0.283934                       # IPC: instructions per cycle
system.cpu.numCycles                        352195074                       # number of cpu cycles simulated
system.cpu.numFetchSuspends                         0                       # Number of times Execute suspended instruction fetching
system.cpu.numWorkItemsCompleted                    0                       # number of work items this cpu completed
system.cpu.numWorkItemsStarted                      0                       # number of work items this cpu started
system.cpu.op_class_0::No_OpClass                   0      0.00%      0.00% # Class of committed instruction
system.cpu.op_class_0::IntAlu                49995350     49.99%     49.99% # Class of committed instruction
system.cpu.op_class_0::IntMult                     88      0.00%     49.99% # Class of committed instruction
system.cpu.op_class_0::IntDiv                       0      0.00%     49.99% # Class of committed instruction
system.cpu.op_class_0::FloatAdd                     0      0.00%     49.99% # Class of committed instruction
system.cpu.op_class_0::FloatCmp                     0      0.00%     49.99% # Class of committed instruction
system.cpu.op_class_0::FloatCvt                     0      0.00%     49.99% # Class of committed instruction
system.cpu.op_class_0::FloatMult                    0      0.00%     49.99% # Class of committed instruction
system.cpu.op_class_0::FloatMultAcc                 0      0.00%     49.99% # Class of committed instruction
system.cpu.op_class_0::FloatDiv                     0      0.00%     49.99% # Class of committed instruction
system.cpu.op_class_0::FloatMisc                    0      0.00%     49.99% # Class of committed instruction
system.cpu.op_class_0::FloatSqrt                    0      0.00%     49.99% # Class of committed instruction
system.cpu.op_class_0::SimdAdd                      0      0.00%     49.99% # Class of committed instruction
system.cpu.op_class_0::SimdAddAcc                   0      0.00%     49.99% # Class of committed instruction
system.cpu.op_class_0::SimdAlu                      0      0.00%     49.99% # Class of committed instruction
system.cpu.op_class_0::SimdCmp                      0      0.00%     49.99% # Class of committed instruction
system.cpu.op_class_0::SimdCvt                      0      0.00%     49.99% # Class of committed instruction
system.cpu.op_class_0::SimdMisc                     0      0.00%     49.99% # Class of committed instruction
system.cpu.op_class_0::SimdMult                     0      0.00%     49.99% # Class of committed instruction
system.cpu.op_class_0::SimdMultAcc                  0      0.00%     49.99% # Class of committed instruction
system.cpu.op_class_0::SimdShift                    0      0.00%     49.99% # Class of committed instruction
system.cpu.op_class_0::SimdShiftAcc                 0      0.00%     49.99% # Class of committed instruction
system.cpu.op_class_0::SimdDiv                      0      0.00%     49.99% # Class of committed instruction
system.cpu.op_class_0::SimdSqrt                     0      0.00%     49.99% # Class of committed instruction
system.cpu.op_class_0::SimdFloatAdd                 0      0.00%     49.99% # Class of committed instruction
system.cpu.op_class_0::SimdFloatAlu                 0      0.00%     49.99% # Class of committed instruction
system.cpu.op_class_0::SimdFloatCmp                 2      0.00%     49.99% # Class of committed instruction
system.cpu.op_class_0::SimdFloatCvt                 0      0.00%     49.99% # Class of committed instruction
system.cpu.op_class_0::SimdFloatDiv                 0      0.00%     49.99% # Class of committed instruction
system.cpu.op_class_0::SimdFloatMisc               22      0.00%     49.99% # Class of committed instruction
system.cpu.op_class_0::SimdFloatMult                0      0.00%     49.99% # Class of committed instruction
system.cpu.op_class_0::SimdFloatMultAcc             0      0.00%     49.99% # Class of committed instruction
system.cpu.op_class_0::SimdFloatSqrt                0      0.00%     49.99% # Class of committed instruction
system.cpu.op_class_0::SimdReduceAdd                0      0.00%     49.99% # Class of committed instruction
system.cpu.op_class_0::SimdReduceAlu                0      0.00%     49.99% # Class of committed instruction
system.cpu.op_class_0::SimdReduceCmp                0      0.00%     49.99% # Class of committed instruction
system.cpu.op_class_0::SimdFloatReduceAdd            0      0.00%     49.99% # Class of committed instruction
system.cpu.op_class_0::SimdFloatReduceCmp            0      0.00%     49.99% # Class of committed instruction
system.cpu.op_class_0::SimdAes                      0      0.00%     49.99% # Class of committed instruction
system.cpu.op_class_0::SimdAesMix                   0      0.00%     49.99% # Class of committed instruction
system.cpu.op_class_0::SimdSha1Hash                 0      0.00%     49.99% # Class of committed instruction
system.cpu.op_class_0::SimdSha1Hash2                0      0.00%     49.99% # Class of committed instruction
system.cpu.op_class_0::SimdSha256Hash               0      0.00%     49.99% # Class of committed instruction
system.cpu.op_class_0::SimdSha256Hash2              0      0.00%     49.99% # Class of committed instruction
system.cpu.op_class_0::SimdShaSigma2                0      0.00%     49.99% # Class of committed instruction
system.cpu.op_class_0::SimdShaSigma3                0      0.00%     49.99% # Class of committed instruction
system.cpu.op_class_0::SimdPredAlu                  0      0.00%     49.99% # Class of committed instruction
system.cpu.op_class_0::MemRead               36892285     36.89%     86.88% # Class of committed instruction
system.cpu.op_class_0::MemWrite              13115883     13.12%    100.00% # Class of committed instruction
system.cpu.op_class_0::FloatMemRead                 0      0.00%    100.00% # Class of committed instruction
system.cpu.op_class_0::FloatMemWrite                0      0.00%    100.00% # Class of committed instruction
system.cpu.op_class_0::IprAccess                    0      0.00%    100.00% # Class of committed instruction
system.cpu.op_class_0::InstPrefetch                 0      0.00%    100.00% # Class of committed instruction
system.cpu.op_class_0::total                100003630                       # Class of committed instruction
system.cpu.tickCycles                       117421034                       # Number of cycles that the object actually ticked
system.cpu.workload.numSyscalls                    19                       # Number of system calls
system.membus.snoop_filter.hit_multi_requests            0                       # Number of requests hitting in the snoop filter with multiple (>1) holders of the requested data.
system.membus.snoop_filter.hit_multi_snoops            0                       # Number of snoops hitting in the snoop filter with multiple (>1) holders of the requested data.
system.membus.snoop_filter.hit_single_requests      1479521                       # Number of requests hitting in the snoop filter with a single holder of the requested data.
system.membus.snoop_filter.hit_single_snoops            0                       # Number of snoops hitting in the snoop filter with a single holder of the requested data.
system.membus.snoop_filter.tot_requests       2967635                       # Total number of requests made to the snoop filter.
system.membus.snoop_filter.tot_snoops               0                       # Total number of snoops made to the snoop filter.
system.tol2bus.snoop_filter.hit_multi_requests        11656                       # Number of requests hitting in the snoop filter with multiple (>1) holders of the requested data.
system.tol2bus.snoop_filter.hit_multi_snoops            0                       # Number of snoops hitting in the snoop filter with multiple (>1) holders of the requested data.
system.tol2bus.snoop_filter.hit_single_requests      1528021                       # Number of requests hitting in the snoop filter with a single holder of the requested data.
system.tol2bus.snoop_filter.hit_single_snoops          401                       # Number of snoops hitting in the snoop filter with a single holder of the requested data.
system.tol2bus.snoop_filter.tot_requests      3056954                       # Total number of requests made to the snoop filter.
system.tol2bus.snoop_filter.tot_snoops            401                       # Total number of snoops made to the snoop filter.
system.clk_domain.clock                          1000                       # Clock period in ticks
system.cpu.branchPred.lookups                  606534                       # Number of BP lookups
system.cpu.branchPred.condPredicted            604462                       # Number of conditional branches predicted
system.cpu.branchPred.condIncorrect               824                       # Number of conditional branches incorrect
system.cpu.branchPred.BTBLookups               602525                       # Number of BTB lookups
system.cpu.branchPred.BTBHits                  601435                       # Number of BTB hits
system.cpu.branchPred.BTBHitPct             99.819095                       # BTB Hit Percentage
system.cpu.branchPred.RASUsed                     557                       # Number of times the RAS was used to get a target.
system.cpu.branchPred.RASIncorrect                  2                       # Number of incorrect RAS predictions.
system.cpu.branchPred.indirectLookups             367                       # Number of indirect predictor lookups.
system.cpu.branchPred.indirectHits                174                       # Number of indirect target hits.
system.cpu.branchPred.indirectMisses              193                       # Number of indirect misses.
system.cpu.branchPred.indirectMispredicted          102                       # Number of mispredicted indirect branches.
system.cpu.dcache.demand_hits::.cpu.data     45762570                       # number of demand (read+write) hits
system.cpu.dcache.demand_hits::total         45762570                       # number of demand (read+write) hits
system.cpu.dcache.overall_hits::.cpu.data     45762604                       # number of overall hits
system.cpu.dcache.overall_hits::total        45762604                       # number of overall hits
system.cpu.dcache.demand_misses::.cpu.data      3032647                       # number of demand (read+write) misses
system.cpu.dcache.demand_misses::total        3032647                       # number of demand (read+write) misses
system.cpu.dcache.overall_misses::.cpu.data      3032665                       # number of overall misses
system.cpu.dcache.overall_misses::total       3032665                       # number of overall misses
system.cpu.dcache.demand_miss_latency::.cpu.data 239545185500                       # number of demand (read+write) miss cycles
system.cpu.dcache.demand_miss_latency::total 239545185500                       # number of demand (read+write) miss cycles
system.cpu.dcache.overall_miss_latency::.cpu.data 239545185500                       # number of overall miss cycles
system.cpu.dcache.overall_miss_latency::total 239545185500                       # number of overall miss cycles
system.cpu.dcache.demand_accesses::.cpu.data     48795217                       # number of demand (read+write) accesses
system.cpu.dcache.demand_accesses::total     48795217                       # number of demand (read+write) accesses
system.cpu.dcache.overall_accesses::.cpu.data     48795269                       # number of overall (read+write) accesses
system.cpu.dcache.overall_accesses::total     48795269                       # number of overall (read+write) accesses
system.cpu.dcache.demand_miss_rate::.cpu.data     0.062150                       # miss rate for demand accesses
system.cpu.dcache.demand_miss_rate::total     0.062150                       # miss rate for demand accesses
system.cpu.dcache.overall_miss_rate::.cpu.data     0.062151                       # miss rate for overall accesses
system.cpu.dcache.overall_miss_rate::total     0.062151                       # miss rate for overall accesses
system.cpu.dcache.demand_avg_miss_latency::.cpu.data 78988.812579                       # average overall miss latency
system.cpu.dcache.demand_avg_miss_latency::total 78988.812579                       # average overall miss latency
system.cpu.dcache.overall_avg_miss_latency::.cpu.data 78988.343750                       # average overall miss latency
system.cpu.dcache.overall_avg_miss_latency::total 78988.343750                       # average overall miss latency
system.cpu.dcache.blocked_cycles::no_mshrs            0                       # number of cycles access was blocked
system.cpu.dcache.blocked_cycles::no_targets            0                       # number of cycles access was blocked
system.cpu.dcache.blocked::no_mshrs                 0                       # number of cycles access was blocked
system.cpu.dcache.blocked::no_targets               0                       # number of cycles access was blocked
system.cpu.dcache.avg_blocked_cycles::no_mshrs          nan                       # average number of cycles each access was blocked
system.cpu.dcache.avg_blocked_cycles::no_targets          nan                       # average number of cycles each access was blocked
system.cpu.dcache.writebacks::.writebacks      1516072                       # number of writebacks
system.cpu.dcache.writebacks::total           1516072                       # number of writebacks
system.cpu.dcache.demand_mshr_hits::.cpu.data      1504338                       # number of demand (read+write) MSHR hits
system.cpu.dcache.demand_mshr_hits::total      1504338                       # number of demand (read+write) MSHR hits
system.cpu.dcache.overall_mshr_hits::.cpu.data      1504338                       # number of overall MSHR hits
system.cpu.dcache.overall_mshr_hits::total      1504338                       # number of overall MSHR hits
system.cpu.dcache.demand_mshr_misses::.cpu.data      1528309                       # number of demand (read+write) MSHR misses
system.cpu.dcache.demand_mshr_misses::total      1528309                       # number of demand (read+write) MSHR misses
system.cpu.dcache.overall_mshr_misses::.cpu.data      1528324                       # number of overall MSHR misses
system.cpu.dcache.overall_mshr_misses::total      1528324                       # number of overall MSHR misses
system.cpu.dcache.demand_mshr_miss_latency::.cpu.data 122522537000                       # number of demand (read+write) MSHR miss cycles
system.cpu.dcache.demand_mshr_miss_latency::total 122522537000                       # number of demand (read+write) MSHR miss cycles
system.cpu.dcache.overall_mshr_miss_latency::.cpu.data 122523641500                       # number of overall MSHR miss cycles
system.cpu.dcache.overall_mshr_miss_latency::total 122523641500                       # number of overall MSHR miss cycles
system.cpu.dcache.demand_mshr_miss_rate::.cpu.data     0.031321                       # mshr miss rate for demand accesses
system.cpu.dcache.demand_mshr_miss_rate::total     0.031321                       # mshr miss rate for demand accesses
system.cpu.dcache.overall_mshr_miss_rate::.cpu.data     0.031321                       # mshr miss rate for overall accesses
system.cpu.dcache.overall_mshr_miss_rate::total     0.031321                       # mshr miss rate for overall accesses
system.cpu.dcache.demand_avg_mshr_miss_latency::.cpu.data 80168.694289                       # average overall mshr miss latency
system.cpu.dcache.demand_avg_mshr_miss_latency::total 80168.694289                       # average overall mshr miss latency
system.cpu.dcache.overall_avg_mshr_miss_latency::.cpu.data 80168.630146                       # average overall mshr miss latency
system.cpu.dcache.overall_avg_mshr_miss_latency::total 80168.630146                       # average overall mshr miss latency
system.cpu.dcache.replacements                1527812                       # number of replacements
system.cpu.dcache.ReadReq_hits::.cpu.data     35679299                       # number of ReadReq hits
system.cpu.dcache.ReadReq_hits::total        35679299                       # number of ReadReq hits
system.cpu.dcache.ReadReq_misses::.cpu.data        23383                       # number of ReadReq misses
system.cpu.dcache.ReadReq_misses::total         23383                       # number of ReadReq misses
system.cpu.dcache.ReadReq_miss_latency::.cpu.data    538266500                       # number of ReadReq miss cycles
system.cpu.dcache.ReadReq_miss_latency::total    538266500                       # number of ReadReq miss cycles
system.cpu.dcache.ReadReq_accesses::.cpu.data     35702682                       # number of ReadReq accesses(hits+misses)
system.cpu.dcache.ReadReq_accesses::total     35702682                       # number of ReadReq accesses(hits+misses)
system.cpu.dcache.ReadReq_miss_rate::.cpu.data     0.000655                       # miss rate for ReadReq accesses
system.cpu.dcache.ReadReq_miss_rate::total     0.000655                       # miss rate for ReadReq accesses
system.cpu.dcache.ReadReq_avg_miss_latency::.cpu.data 23019.565496                       # average ReadReq miss latency
system.cpu.dcache.ReadReq_avg_miss_latency::total 23019.565496                       # average ReadReq miss latency
system.cpu.dcache.ReadReq_mshr_hits::.cpu.data            7                       # number of ReadReq MSHR hits
system.cpu.dcache.ReadReq_mshr_hits::total            7                       # number of ReadReq MSHR hits
system.cpu.dcache.ReadReq_mshr_misses::.cpu.data        23376                       # number of ReadReq MSHR misses
system.cpu.dcache.ReadReq_mshr_misses::total        23376                       # number of ReadReq MSHR misses
system.cpu.dcache.ReadReq_mshr_miss_latency::.cpu.data    514462500                       # number of ReadReq MSHR miss cycles
system.cpu.dcache.ReadReq_mshr_miss_latency::total    514462500                       # number of ReadReq MSHR miss cycles
system.cpu.dcache.ReadReq_mshr_miss_rate::.cpu.data     0.000655                       # mshr miss rate for ReadReq accesses
system.cpu.dcache.ReadReq_mshr_miss_rate::total     0.000655                       # mshr miss rate for ReadReq accesses
system.cpu.dcache.ReadReq_avg_mshr_miss_latency::.cpu.data 22008.149384                       # average ReadReq mshr miss latency
system.cpu.dcache.ReadReq_avg_mshr_miss_latency::total 22008.149384                       # average ReadReq mshr miss latency
system.cpu.dcache.WriteReq_hits::.cpu.data     10083271                       # number of WriteReq hits
system.cpu.dcache.WriteReq_hits::total       10083271                       # number of WriteReq hits
system.cpu.dcache.WriteReq_misses::.cpu.data      3009264                       # number of WriteReq misses
system.cpu.dcache.WriteReq_misses::total      3009264                       # number of WriteReq misses
system.cpu.dcache.WriteReq_miss_latency::.cpu.data 239006919000                       # number of WriteReq miss cycles
system.cpu.dcache.WriteReq_miss_latency::total 239006919000                       # number of WriteReq miss cycles
system.cpu.dcache.WriteReq_accesses::.cpu.data     13092535                       # number of WriteReq accesses(hits+misses)
system.cpu.dcache.WriteReq_accesses::total     13092535                       # number of WriteReq accesses(hits+misses)
system.cpu.dcache.WriteReq_miss_rate::.cpu.data     0.229846                       # miss rate for WriteReq accesses
system.cpu.dcache.WriteReq_miss_rate::total     0.229846                       # miss rate for WriteReq accesses
system.cpu.dcache.WriteReq_avg_miss_latency::.cpu.data 79423.712576                       # average WriteReq miss latency
system.cpu.dcache.WriteReq_avg_miss_latency::total 79423.712576                       # average WriteReq miss latency
system.cpu.dcache.WriteReq_mshr_hits::.cpu.data      1504331                       # number of WriteReq MSHR hits
system.cpu.dcache.WriteReq_mshr_hits::total      1504331                       # number of WriteReq MSHR hits
system.cpu.dcache.WriteReq_mshr_misses::.cpu.data      1504933                       # number of WriteReq MSHR misses
system.cpu.dcache.WriteReq_mshr_misses::total      1504933                       # number of WriteReq MSHR misses
system.cpu.dcache.WriteReq_mshr_miss_latency::.cpu.data 122008074500                       # number of WriteReq MSHR miss cycles
system.cpu.dcache.WriteReq_mshr_miss_latency::total 122008074500                       # number of WriteReq MSHR miss cycles
system.cpu.dcache.WriteReq_mshr_miss_rate::.cpu.data     0.114946                       # mshr miss rate for WriteReq accesses
system.cpu.dcache.WriteReq_mshr_miss_rate::total     0.114946                       # mshr miss rate for WriteReq accesses
system.cpu.dcache.WriteReq_avg_mshr_miss_latency::.cpu.data 81072.097230                       # average WriteReq mshr miss latency
system.cpu.dcache.WriteReq_avg_mshr_miss_latency::total 81072.097230                       # average WriteReq mshr miss latency
system.cpu.dcache.SoftPFReq_hits::.cpu.data           34                       # number of SoftPFReq hits
system.cpu.dcache.SoftPFReq_hits::total            34                       # number of SoftPFReq hits
system.cpu.dcache.SoftPFReq_misses::.cpu.data           18                       # number of SoftPFReq misses
system.cpu.dcache.SoftPFReq_misses::total           18                       # number of SoftPFReq misses
system.cpu.dcache.SoftPFReq_accesses::.cpu.data           52                       # number of SoftPFReq accesses(hits+misses)
system.cpu.dcache.SoftPFReq_accesses::total           52                       # number of SoftPFReq accesses(hits+misses)
system.cpu.dcache.SoftPFReq_miss_rate::.cpu.data     0.346154                       # miss rate for SoftPFReq accesses
system.cpu.dcache.SoftPFReq_miss_rate::total     0.346154                       # miss rate for SoftPFReq accesses
system.cpu.dcache.SoftPFReq_mshr_misses::.cpu.data           15                       # number of SoftPFReq MSHR misses
system.cpu.dcache.SoftPFReq_mshr_misses::total           15                       # number of SoftPFReq MSHR misses
system.cpu.dcache.SoftPFReq_mshr_miss_latency::.cpu.data      1104500                       # number of SoftPFReq MSHR miss cycles
system.cpu.dcache.SoftPFReq_mshr_miss_latency::total      1104500                       # number of SoftPFReq MSHR miss cycles
system.cpu.dcache.SoftPFReq_mshr_miss_rate::.cpu.data     0.288462                       # mshr miss rate for SoftPFReq accesses
system.cpu.dcache.SoftPFReq_mshr_miss_rate::total     0.288462                       # mshr miss rate for SoftPFReq accesses
system.cpu.dcache.SoftPFReq_avg_mshr_miss_latency::.cpu.data 73633.333333                       # average SoftPFReq mshr miss latency
system.cpu.dcache.SoftPFReq_avg_mshr_miss_latency::total 73633.333333                       # average SoftPFReq mshr miss latency
system.cpu.dcache.LoadLockedReq_hits::.cpu.data           14                       # number of LoadLockedReq hits
system.cpu.dcache.LoadLockedReq_hits::total           14                       # number of LoadLockedReq hits
system.cpu.dcache.LoadLockedReq_accesses::.cpu.data           14                       # number of LoadLockedReq accesses(hits+misses)
system.cpu.dcache.LoadLockedReq_accesses::total           14                       # number of LoadLockedReq accesses(hits+misses)
system.cpu.dcache.StoreCondReq_hits::.cpu.data           14                       # number of StoreCondReq hits
system.cpu.dcache.StoreCondReq_hits::total           14                       # number of StoreCondReq hits
system.cpu.dcache.StoreCondReq_accesses::.cpu.data           14                       # number of StoreCondReq accesses(hits+misses)
system.cpu.dcache.StoreCondReq_accesses::total           14                       # number of StoreCondReq accesses(hits+misses)
system.cpu.dcache.power_state.pwrStateResidencyTicks::UNDEFINED 176097537000                       # Cumulative time (in ticks) in various power states
system.cpu.dcache.tags.tagsinuse           511.803817                       # Cycle average of tags in use
system.cpu.dcache.tags.total_refs            47290956                       # Total number of references to valid blocks.
system.cpu.dcache.tags.sampled_refs           1528324                       # Sample count of references to valid blocks.
system.cpu.dcache.tags.avg_refs             30.943017                       # Average number of references to valid blocks.
system.cpu.dcache.tags.warmup_cycle            176500                       # Cycle when the warmup percentage was hit.
system.cpu.dcache.tags.occ_blocks::.cpu.data   511.803817                       # Average occupied blocks per requestor
system.cpu.dcache.tags.occ_percent::.cpu.data     0.999617                       # Average percentage of cache occupancy
system.cpu.dcache.tags.occ_percent::total     0.999617                       # Average percentage of cache occupancy
system.cpu.dcache.tags.occ_task_id_blocks::1024          512                       # Occupied blocks per task id
system.cpu.dcache.tags.age_task_id_blocks_1024::0           86                       # Occupied blocks per task id
system.cpu.dcache.tags.age_task_id_blocks_1024::1          426                       # Occupied blocks per task id
system.cpu.dcache.tags.occ_task_id_percent::1024            1                       # Percentage of cache occupancy per task id
system.cpu.dcache.tags.tag_accesses          50323621                       # Number of tag accesses
system.cpu.dcache.tags.data_accesses         50323621                       # Number of data accesses
system.cpu.dcache.tags.power_state.pwrStateResidencyTicks::UNDEFINED 176097537000                       # Cumulative time (in ticks) in various power states
system.cpu.dtb.instHits                             0                       # ITB inst hits
system.cpu.dtb.instMisses                           0                       # ITB inst misses
system.cpu.dtb.readHits                             0                       # DTB read hits
system.cpu.dtb.readMisses                           0                       # DTB read misses
system.cpu.dtb.writeHits                            0                       # DTB write hits
system.cpu.dtb.writeMisses                          0                       # DTB write misses
system.cpu.dtb.inserts                              0                       # Number of times an entry is inserted into the TLB
system.cpu.dtb.flushTlb                             0                       # Number of times complete TLB was flushed
system.cpu.dtb.flushTlbMva                          0                       # Number of times TLB was flushed by MVA
system.cpu.dtb.flushTlbMvaAsid                      0                       # Number of times TLB was flushed by MVA & ASID
system.cpu.dtb.flushTlbAsid                         0                       # Number of times TLB was flushed by ASID
system.cpu.dtb.flushedEntries                       0                       # Number of entries that have been flushed from TLB
system.cpu.dtb.alignFaults                          0                       # Number of TLB faults due to alignment restrictions
system.cpu.dtb.prefetchFaults                       0                       # Number of TLB faults due to prefetch
system.cpu.dtb.domainFaults                         0                       # Number of TLB faults due to domain restrictions
system.cpu.dtb.permsFaults                          0                       # Number of TLB faults due to permissions restrictions
system.cpu.dtb.readAccesses                         0                       # DTB read accesses
system.cpu.dtb.writeAccesses                        0                       # DTB write accesses
system.cpu.dtb.instAccesses                         0                       # ITB inst accesses
system.cpu.dtb.hits                                 0                       # Total TLB (inst and data) hits
system.cpu.dtb.misses                               0                       # Total TLB (inst and data) misses
system.cpu.dtb.accesses                             0                       # Total TLB (inst and data) accesses
system.cpu.dtb.stage2_mmu.stage2_tlb.instHits            0                       # ITB inst hits
system.cpu.dtb.stage2_mmu.stage2_tlb.instMisses            0                       # ITB inst misses
system.cpu.dtb.stage2_mmu.stage2_tlb.readHits            0                       # DTB read hits
system.cpu.dtb.stage2_mmu.stage2_tlb.readMisses            0                       # DTB read misses
system.cpu.dtb.stage2_mmu.stage2_tlb.writeHits            0                       # DTB write hits
system.cpu.dtb.stage2_mmu.stage2_tlb.writeMisses            0                       # DTB write misses
system.cpu.dtb.stage2_mmu.stage2_tlb.inserts            0                       # Number of times an entry is inserted into the TLB
system.cpu.dtb.stage2_mmu.stage2_tlb.flushTlb            0                       # Number of times complete TLB was flushed
system.cpu.dtb.stage2_mmu.stage2_tlb.flushTlbMva            0                       # Number of times TLB was flushed by MVA
system.cpu.dtb.stage2_mmu.stage2_tlb.flushTlbMvaAsid            0                       # Number of times TLB was flushed by MVA & ASID
system.cpu.dtb.stage2_mmu.stage2_tlb.flushTlbAsid            0                       # Number of times TLB was flushed by ASID
system.cpu.dtb.stage2_mmu.stage2_tlb.flushedEntries            0                       # Number of entries that have been flushed from TLB
system.cpu.dtb.stage2_mmu.stage2_tlb.alignFaults            0                       # Number of TLB faults due to alignment restrictions
system.cpu.dtb.stage2_mmu.stage2_tlb.prefetchFaults            0                       # Number of TLB faults due to prefetch
system.cpu.dtb.stage2_mmu.stage2_tlb.domainFaults            0                       # Number of TLB faults due to domain restrictions
system.cpu.dtb.stage2_mmu.stage2_tlb.permsFaults            0                       # Number of TLB faults due to permissions restrictions
system.cpu.dtb.stage2_mmu.stage2_tlb.readAccesses            0                       # DTB read accesses
system.cpu.dtb.stage2_mmu.stage2_tlb.writeAccesses            0                       # DTB write accesses
system.cpu.dtb.stage2_mmu.stage2_tlb.instAccesses            0                       # ITB inst accesses
system.cpu.dtb.stage2_mmu.stage2_tlb.hits            0                       # Total TLB (inst and data) hits
system.cpu.dtb.stage2_mmu.stage2_tlb.misses            0                       # Total TLB (inst and data) misses
system.cpu.dtb.stage2_mmu.stage2_tlb.accesses            0                       # Total TLB (inst and data) accesses
system.cpu.dtb.stage2_mmu.stage2_tlb.walker.walks            0                       # Table walker walks requested
system.cpu.dtb.stage2_mmu.stage2_tlb.walker.requestOrigin_Requested::Data            0                       # Table walker requests started/completed, data/inst
system.cpu.dtb.stage2_mmu.stage2_tlb.walker.requestOrigin_Requested::Inst            0                       # Table walker requests started/completed, data/inst
system.cpu.dtb.stage2_mmu.stage2_tlb.walker.requestOrigin_Requested::total            0                       # Table walker requests started/completed, data/inst
system.cpu.dtb.stage2_mmu.stage2_tlb.walker.requestOrigin_Completed::Data            0                       # Table walker requests started/completed, data/inst
system.cpu.dtb.stage2_mmu.stage2_tlb.walker.requestOrigin_Completed::Inst            0                       # Table walker requests started/completed, data/inst
system.cpu.dtb.stage2_mmu.stage2_tlb.walker.requestOrigin_Completed::total            0                       # Table walker requests started/completed, data/inst
system.cpu.dtb.stage2_mmu.stage2_tlb.walker.requestOrigin::total            0                       # Table walker requests started/completed, data/inst
system.cpu.dtb.stage2_mmu.stage2_tlb.walker.power_state.pwrStateResidencyTicks::UNDEFINED 176097537000                       # Cumulative time (in ticks) in various power states
system.cpu.dtb.walker.walks                         0                       # Table walker walks requested
system.cpu.dtb.walker.requestOrigin_Requested::Data            0                       # Table walker requests started/completed, data/inst
system.cpu.dtb.walker.requestOrigin_Requested::Inst            0                       # Table walker requests started/completed, data/inst
system.cpu.dtb.walker.requestOrigin_Requested::total            0                       # Table walker requests started/completed, data/inst
system.cpu.dtb.walker.requestOrigin_Completed::Data            0                       # Table walker requests started/completed, data/inst
system.cpu.dtb.walker.requestOrigin_Completed::Inst            0                       # Table walker requests started/completed, data/inst
system.cpu.dtb.walker.requestOrigin_Completed::total            0                       # Table walker requests started/completed, data/inst
system.cpu.dtb.walker.requestOrigin::total            0                       # Table walker requests started/completed, data/inst
system.cpu.dtb.walker.power_state.pwrStateResidencyTicks::UNDEFINED 176097537000                       # Cumulative time (in ticks) in various power states
system.cpu.fetch2.intInstructions            49669918                       # Number of integer instructions successfully decoded
system.cpu.fetch2.fpInstructions                    0                       # Number of floating point instructions successfully decoded
system.cpu.fetch2.vecInstructions                   0                       # Number of SIMD instructions successfully decoded
system.cpu.fetch2.loadInstructions           37092384                       # Number of memory load instructions successfully decoded
system.cpu.fetch2.storeInstructions          13161158                       # Number of memory store instructions successfully decoded
system.cpu.fetch2.amoInstructions                   0                       # Number of memory atomic instructions successfully decoded
system.cpu.icache.demand_hits::.cpu.inst      6045911                       # number of demand (read+write) hits
system.cpu.icache.demand_hits::total          6045911                       # number of demand (read+write) hits
system.cpu.icache.overall_hits::.cpu.inst      6045911                       # number of overall hits
system.cpu.icache.overall_hits::total         6045911                       # number of overall hits
system.cpu.icache.demand_misses::.cpu.inst          610                       # number of demand (read+write) misses
system.cpu.icache.demand_misses::total            610                       # number of demand (read+write) misses
system.cpu.icache.overall_misses::.cpu.inst          610                       # number of overall misses
system.cpu.icache.overall_misses::total           610                       # number of overall misses
system.cpu.icache.demand_miss_latency::.cpu.inst     40570000                       # number of demand (read+write) miss cycles
system.cpu.icache.demand_miss_latency::total     40570000                       # number of demand (read+write) miss cycles
system.cpu.icache.overall_miss_latency::.cpu.inst     40570000                       # number of overall miss cycles
system.cpu.icache.overall_miss_latency::total     40570000                       # number of overall miss cycles
system.cpu.icache.demand_accesses::.cpu.inst      6046521                       # number of demand (read+write) accesses
system.cpu.icache.demand_accesses::total      6046521                       # number of demand (read+write) accesses
system.cpu.icache.overall_accesses::.cpu.inst      6046521                       # number of overall (read+write) accesses
system.cpu.icache.overall_accesses::total      6046521                       # number of overall (read+write) accesses
system.cpu.icache.demand_miss_rate::.cpu.inst     0.000101                       # miss rate for demand accesses
system.cpu.icache.demand_miss_rate::total     0.000101                       # miss rate for demand accesses
system.cpu.icache.overall_miss_rate::.cpu.inst     0.000101                       # miss rate for overall accesses
system.cpu.icache.overall_miss_rate::total     0.000101                       # miss rate for overall accesses
system.cpu.icache.demand_avg_miss_latency::.cpu.inst 66508.196721                       # average overall miss latency
system.cpu.icache.demand_avg_miss_latency::total 66508.196721                       # average overall miss latency
system.cpu.icache.overall_avg_miss_latency::.cpu.inst 66508.196721                       # average overall miss latency
system.cpu.icache.overall_avg_miss_latency::total 66508.196721                       # average overall miss latency
system.cpu.icache.blocked_cycles::no_mshrs            0                       # number of cycles access was blocked
system.cpu.icache.blocked_cycles::no_targets            0                       # number of cycles access was blocked
system.cpu.icache.blocked::no_mshrs                 0                       # number of cycles access was blocked
system.cpu.icache.blocked::no_targets               0                       # number of cycles access was blocked
system.cpu.icache.avg_blocked_cycles::no_mshrs          nan                       # average number of cycles each access was blocked
system.cpu.icache.avg_blocked_cycles::no_targets          nan                       # average number of cycles each access was blocked
system.cpu.icache.writebacks::.writebacks          208                       # number of writebacks
system.cpu.icache.writebacks::total               208                       # number of writebacks
system.cpu.icache.demand_mshr_misses::.cpu.inst          610                       # number of demand (read+write) MSHR misses
system.cpu.icache.demand_mshr_misses::total          610                       # number of demand (read+write) MSHR misses
system.cpu.icache.overall_mshr_misses::.cpu.inst          610                       # number of overall MSHR misses
system.cpu.icache.overall_mshr_misses::total          610                       # number of overall MSHR misses
system.cpu.icache.demand_mshr_miss_latency::.cpu.inst     39960000                       # number of demand (read+write) MSHR miss cycles
system.cpu.icache.demand_mshr_miss_latency::total     39960000                       # number of demand (read+write) MSHR miss cycles
system.cpu.icache.overall_mshr_miss_latency::.cpu.inst     39960000                       # number of overall MSHR miss cycles
system.cpu.icache.overall_mshr_miss_latency::total     39960000                       # number of overall MSHR miss cycles
system.cpu.icache.demand_mshr_miss_rate::.cpu.inst     0.000101                       # mshr miss rate for demand accesses
system.cpu.icache.demand_mshr_miss_rate::total     0.000101                       # mshr miss rate for demand accesses
system.cpu.icache.overall_mshr_miss_rate::.cpu.inst     0.000101                       # mshr miss rate for overall accesses
system.cpu.icache.overall_mshr_miss_rate::total     0.000101                       # mshr miss rate for overall accesses
system.cpu.icache.demand_avg_mshr_miss_latency::.cpu.inst 65508.196721                       # average overall mshr miss latency
system.cpu.icache.demand_avg_mshr_miss_latency::total 65508.196721                       # average overall mshr miss latency
system.cpu.icache.overall_avg_mshr_miss_latency::.cpu.inst 65508.196721                       # average overall mshr miss latency
system.cpu.icache.overall_avg_mshr_miss_latency::total 65508.196721                       # average overall mshr miss latency
system.cpu.icache.replacements                    208                       # number of replacements
system.cpu.icache.ReadReq_hits::.cpu.inst      6045911                       # number of ReadReq hits
system.cpu.icache.ReadReq_hits::total         6045911                       # number of ReadReq hits
system.cpu.icache.ReadReq_misses::.cpu.inst          610                       # number of ReadReq misses
system.cpu.icache.ReadReq_misses::total           610                       # number of ReadReq misses
system.cpu.icache.ReadReq_miss_latency::.cpu.inst     40570000                       # number of ReadReq miss cycles
system.cpu.icache.ReadReq_miss_latency::total     40570000                       # number of ReadReq miss cycles
system.cpu.icache.ReadReq_accesses::.cpu.inst      6046521                       # number of ReadReq accesses(hits+misses)
system.cpu.icache.ReadReq_accesses::total      6046521                       # number of ReadReq accesses(hits+misses)
system.cpu.icache.ReadReq_miss_rate::.cpu.inst     0.000101                       # miss rate for ReadReq accesses
system.cpu.icache.ReadReq_miss_rate::total     0.000101                       # miss rate for ReadReq accesses
system.cpu.icache.ReadReq_avg_miss_latency::.cpu.inst 66508.196721                       # average ReadReq miss latency
system.cpu.icache.ReadReq_avg_miss_latency::total 66508.196721                       # average ReadReq miss latency
system.cpu.icache.ReadReq_mshr_misses::.cpu.inst          610                       # number of ReadReq MSHR misses
system.cpu.icache.ReadReq_mshr_misses::total          610                       # number of ReadReq MSHR misses
system.cpu.icache.ReadReq_mshr_miss_latency::.cpu.inst     39960000                       # number of ReadReq MSHR miss cycles
system.cpu.icache.ReadReq_mshr_miss_latency::total     39960000                       # number of ReadReq MSHR miss cycles
system.cpu.icache.ReadReq_mshr_miss_rate::.cpu.inst     0.000101                       # mshr miss rate for ReadReq accesses
system.cpu.icache.ReadReq_mshr_miss_rate::total     0.000101                       # mshr miss rate for ReadReq accesses
system.cpu.icache.ReadReq_avg_mshr_miss_latency::.cpu.inst 65508.196721                       # average ReadReq mshr miss latency
system.cpu.icache.ReadReq_avg_mshr_miss_latency::total 65508.196721                       # average ReadReq mshr miss latency
system.cpu.icache.power_state.pwrStateResidencyTicks::UNDEFINED 176097537000                       # Cumulative time (in ticks) in various power states
system.cpu.icache.tags.tagsinuse           401.941873                       # Cycle average of tags in use
system.cpu.icache.tags.total_refs             6046521                       # Total number of references to valid blocks.
system.cpu.icache.tags.sampled_refs               610                       # Sample count of references to valid blocks.
system.cpu.icache.tags.avg_refs           9912.329508                       # Average number of references to valid blocks.
system.cpu.icache.tags.warmup_cycle             87500                       # Cycle when the warmup percentage was hit.
system.cpu.icache.tags.occ_blocks::.cpu.inst   401.941873                       # Average occupied blocks per requestor
system.cpu.icache.tags.occ_percent::.cpu.inst     0.392521                       # Average percentage of cache occupancy
system.cpu.icache.tags.occ_percent::total     0.392521                       # Average percentage of cache occupancy
system.cpu.icache.tags.occ_task_id_blocks::1024          402                       # Occupied blocks per task id
system.cpu.icache.tags.age_task_id_blocks_1024::4          402                       # Occupied blocks per task id
system.cpu.icache.tags.occ_task_id_percent::1024     0.392578                       # Percentage of cache occupancy per task id
system.cpu.icache.tags.tag_accesses           6047131                       # Number of tag accesses
system.cpu.icache.tags.data_accesses          6047131                       # Number of data accesses
system.cpu.icache.tags.power_state.pwrStateResidencyTicks::UNDEFINED 176097537000                       # Cumulative time (in ticks) in various power states
system.cpu.itb.instHits                             0                       # ITB inst hits
system.cpu.itb.instMisses                           0                       # ITB inst misses
system.cpu.itb.readHits                             0                       # DTB read hits
system.cpu.itb.readMisses                           0                       # DTB read misses
system.cpu.itb.writeHits                            0                       # DTB write hits
system.cpu.itb.writeMisses                          0                       # DTB write misses
system.cpu.itb.inserts                              0                       # Number of times an entry is inserted into the TLB
system.cpu.itb.flushTlb                             0                       # Number of times complete TLB was flushed
system.cpu.itb.flushTlbMva                          0                       # Number of times TLB was flushed by MVA
system.cpu.itb.flushTlbMvaAsid                      0                       # Number of times TLB was flushed by MVA & ASID
system.cpu.itb.flushTlbAsid                         0                       # Number of times TLB was flushed by ASID
system.cpu.itb.flushedEntries                       0                       # Number of entries that have been flushed from TLB
system.cpu.itb.alignFaults                          0                       # Number of TLB faults due to alignment restrictions
system.cpu.itb.prefetchFaults                       0                       # Number of TLB faults due to prefetch
system.cpu.itb.domainFaults                         0                       # Number of TLB faults due to domain restrictions
system.cpu.itb.permsFaults                          0                       # Number of TLB faults due to permissions restrictions
system.cpu.itb.readAccesses                         0                       # DTB read accesses
system.cpu.itb.writeAccesses                        0                       # DTB write accesses
system.cpu.itb.instAccesses                         0                       # ITB inst accesses
system.cpu.itb.hits                                 0                       # Total TLB (inst and data) hits
system.cpu.itb.misses                               0                       # Total TLB (inst and data) misses
system.cpu.itb.accesses                             0                       # Total TLB (inst and data) accesses
system.cpu.itb.stage2_mmu.stage2_tlb.instHits            0                       # ITB inst hits
system.cpu.itb.stage2_mmu.stage2_tlb.instMisses            0                       # ITB inst misses
system.cpu.itb.stage2_mmu.stage2_tlb.readHits            0                       # DTB read hits
system.cpu.itb.stage2_mmu.stage2_tlb.readMisses            0                       # DTB read misses
system.cpu.itb.stage2_mmu.stage2_tlb.writeHits            0                       # DTB write hits
system.cpu.itb.stage2_mmu.stage2_tlb.writeMisses            0                       # DTB write misses
system.cpu.itb.stage2_mmu.stage2_tlb.inserts            0                       # Number of times an entry is inserted into the TLB
system.cpu.itb.stage2_mmu.stage2_tlb.flushTlb            0                       # Number of times complete TLB was flushed
system.cpu.itb.stage2_mmu.stage2_tlb.flushTlbMva            0                       # Number of times TLB was flushed by MVA
system.cpu.itb.stage2_mmu.stage2_tlb.flushTlbMvaAsid            0                       # Number of times TLB was flushed by MVA & ASID
system.cpu.itb.stage2_mmu.stage2_tlb.flushTlbAsid            0                       # Number of times TLB was flushed by ASID
system.cpu.itb.stage2_mmu.stage2_tlb.flushedEntries            0                       # Number of entries that have been flushed from TLB
system.cpu.itb.stage2_mmu.stage2_tlb.alignFaults            0                       # Number of TLB faults due to alignment restrictions
system.cpu.itb.stage2_mmu.stage2_tlb.prefetchFaults            0                       # Number of TLB faults due to prefetch
system.cpu.itb.stage2_mmu.stage2_tlb.domainFaults            0                       # Number of TLB faults due to domain restrictions
system.cpu.itb.stage2_mmu.stage2_tlb.permsFaults            0                       # Number of TLB faults due to permissions restrictions
system.cpu.itb.stage2_mmu.stage2_tlb.readAccesses            0                       # DTB read accesses
system.cpu.itb.stage2_mmu.stage2_tlb.writeAccesses            0                       # DTB write accesses
system.cpu.itb.stage2_mmu.stage2_tlb.instAccesses            0                       # ITB inst accesses
system.cpu.itb.stage2_mmu.stage2_tlb.hits            0                       # Total TLB (inst and data) hits
system.cpu.itb.stage2_mmu.stage2_tlb.misses            0                       # Total TLB (inst and data) misses
system.cpu.itb.stage2_mmu.stage2_tlb.accesses            0                       # Total TLB (inst and data) accesses
system.cpu.itb.stage2_mmu.stage2_tlb.walker.walks            0                       # Table walker walks requested
system.cpu.itb.stage2_mmu.stage2_tlb.walker.requestOrigin_Requested::Data            0                       # Table walker requests started/completed, data/inst
system.cpu.itb.stage2_mmu.stage2_tlb.walker.requestOrigin_Requested::Inst            0                       # Table walker requests started/completed, data/inst
system.cpu.itb.stage2_mmu.stage2_tlb.walker.requestOrigin_Requested::total            0                       # Table walker requests started/completed, data/inst
system.cpu.itb.stage2_mmu.stage2_tlb.walker.requestOrigin_Completed::Data            0                       # Table walker requests started/completed, data/inst
system.cpu.itb.stage2_mmu.stage2_tlb.walker.requestOrigin_Completed::Inst            0                       # Table walker requests started/completed, data/inst
system.cpu.itb.stage2_mmu.stage2_tlb.walker.requestOrigin_Completed::total            0                       # Table walker requests started/completed, data/inst
system.cpu.itb.stage2_mmu.stage2_tlb.walker.requestOrigin::total            0                       # Table walker requests started/completed, data/inst
system.cpu.itb.stage2_mmu.stage2_tlb.walker.power_state.pwrStateResidencyTicks::UNDEFINED 176097537000                       # Cumulative time (in ticks) in various power states
system.cpu.itb.walker.walks                         0                       # Table walker walks requested
system.cpu.itb.walker.requestOrigin_Requested::Data            0                       # Table walker requests started/completed, data/inst
system.cpu.itb.walker.requestOrigin_Requested::Inst            0                       # Table walker requests started/completed, data/inst
system.cpu.itb.walker.requestOrigin_Requested::total            0                       # Table walker requests started/completed, data/inst
system.cpu.itb.walker.requestOrigin_Completed::Data            0                       # Table walker requests started/completed, data/inst
system.cpu.itb.walker.requestOrigin_Completed::Inst            0                       # Table walker requests started/completed, data/inst
system.cpu.itb.walker.requestOrigin_Completed::total            0                       # Table walker requests started/completed, data/inst
system.cpu.itb.walker.requestOrigin::total            0                       # Table walker requests started/completed, data/inst
system.cpu.itb.walker.power_state.pwrStateResidencyTicks::UNDEFINED 176097537000                       # Cumulative time (in ticks) in various power states
system.cpu.power_state.pwrStateResidencyTicks::ON 176097537000                       # Cumulative time (in ticks) in various power states
system.cpu.thread_0.numInsts                100000000                       # Number of Instructions committed
system.cpu.thread_0.numOps                  100003630                       # Number of Ops committed
system.cpu.thread_0.numMemRefs                      0                       # Number of Memory References
system.cpu_clk_domain.clock                       500                       # Clock period in ticks
system.cpu_voltage_domain.voltage                   1                       # Voltage in Volts
system.l2.demand_hits::.cpu.inst                  109                       # number of demand (read+write) hits
system.l2.demand_hits::.cpu.data                40706                       # number of demand (read+write) hits
system.l2.demand_hits::total                    40815                       # number of demand (read+write) hits
system.l2.overall_hits::.cpu.inst                 109                       # number of overall hits
system.l2.overall_hits::.cpu.data               40706                       # number of overall hits
system.l2.overall_hits::total                   40815                       # number of overall hits
system.l2.demand_misses::.cpu.inst                501                       # number of demand (read+write) misses
system.l2.demand_misses::.cpu.data            1487618                       # number of demand (read+write) misses
system.l2.demand_misses::total                1488119                       # number of demand (read+write) misses
system.l2.overall_misses::.cpu.inst               501                       # number of overall misses
system.l2.overall_misses::.cpu.data           1487618                       # number of overall misses
system.l2.overall_misses::total               1488119                       # number of overall misses
system.l2.demand_miss_latency::.cpu.inst     37839000                       # number of demand (read+write) miss cycles
system.l2.demand_miss_latency::.cpu.data 119289536000                       # number of demand (read+write) miss cycles
system.l2.demand_miss_latency::total     119327375000                       # number of demand (read+write) miss cycles
system.l2.overall_miss_latency::.cpu.inst     37839000                       # number of overall miss cycles
system.l2.overall_miss_latency::.cpu.data 119289536000                       # number of overall miss cycles
system.l2.overall_miss_latency::total    119327375000                       # number of overall miss cycles
system.l2.demand_accesses::.cpu.inst              610                       # number of demand (read+write) accesses
system.l2.demand_accesses::.cpu.data          1528324                       # number of demand (read+write) accesses
system.l2.demand_accesses::total              1528934                       # number of demand (read+write) accesses
system.l2.overall_accesses::.cpu.inst             610                       # number of overall (read+write) accesses
system.l2.overall_accesses::.cpu.data         1528324                       # number of overall (read+write) accesses
system.l2.overall_accesses::total             1528934                       # number of overall (read+write) accesses
system.l2.demand_miss_rate::.cpu.inst        0.821311                       # miss rate for demand accesses
system.l2.demand_miss_rate::.cpu.data        0.973366                       # miss rate for demand accesses
system.l2.demand_miss_rate::total            0.973305                       # miss rate for demand accesses
system.l2.overall_miss_rate::.cpu.inst       0.821311                       # miss rate for overall accesses
system.l2.overall_miss_rate::.cpu.data       0.973366                       # miss rate for overall accesses
system.l2.overall_miss_rate::total           0.973305                       # miss rate for overall accesses
system.l2.demand_avg_miss_latency::.cpu.inst 75526.946108                       # average overall miss latency
system.l2.demand_avg_miss_latency::.cpu.data 80188.284896                       # average overall miss latency
system.l2.demand_avg_miss_latency::total 80186.715579                       # average overall miss latency
system.l2.overall_avg_miss_latency::.cpu.inst 75526.946108                       # average overall miss latency
system.l2.overall_avg_miss_latency::.cpu.data 80188.284896                       # average overall miss latency
system.l2.overall_avg_miss_latency::total 80186.715579                       # average overall miss latency
system.l2.blocked_cycles::no_mshrs                  0                       # number of cycles access was blocked
system.l2.blocked_cycles::no_targets                0                       # number of cycles access was blocked
system.l2.blocked::no_mshrs                         0                       # number of cycles access was blocked
system.l2.blocked::no_targets                       0                       # number of cycles access was blocked
system.l2.avg_blocked_cycles::no_mshrs            nan                       # average number of cycles each access was blocked
system.l2.avg_blocked_cycles::no_targets          nan                       # average number of cycles each access was blocked
system.l2.writebacks::.writebacks             1479329                       # number of writebacks
system.l2.writebacks::total                   1479329                       # number of writebacks
system.l2.demand_mshr_hits::.cpu.inst               2                       # number of demand (read+write) MSHR hits
system.l2.demand_mshr_hits::.cpu.data               3                       # number of demand (read+write) MSHR hits
system.l2.demand_mshr_hits::total                   5                       # number of demand (read+write) MSHR hits
system.l2.overall_mshr_hits::.cpu.inst              2                       # number of overall MSHR hits
system.l2.overall_mshr_hits::.cpu.data              3                       # number of overall MSHR hits
system.l2.overall_mshr_hits::total                  5                       # number of overall MSHR hits
system.l2.demand_mshr_misses::.cpu.inst           499                       # number of demand (read+write) MSHR misses
system.l2.demand_mshr_misses::.cpu.data       1487615                       # number of demand (read+write) MSHR misses
system.l2.demand_mshr_misses::total           1488114                       # number of demand (read+write) MSHR misses
system.l2.overall_mshr_misses::.cpu.inst          499                       # number of overall MSHR misses
system.l2.overall_mshr_misses::.cpu.data      1487615                       # number of overall MSHR misses
system.l2.overall_mshr_misses::total          1488114                       # number of overall MSHR misses
system.l2.demand_mshr_miss_latency::.cpu.inst     32712500                       # number of demand (read+write) MSHR miss cycles
system.l2.demand_mshr_miss_latency::.cpu.data 104413184500                       # number of demand (read+write) MSHR miss cycles
system.l2.demand_mshr_miss_latency::total 104445897000                       # number of demand (read+write) MSHR miss cycles
system.l2.overall_mshr_miss_latency::.cpu.inst     32712500                       # number of overall MSHR miss cycles
system.l2.overall_mshr_miss_latency::.cpu.data 104413184500                       # number of overall MSHR miss cycles
system.l2.overall_mshr_miss_latency::total 104445897000                       # number of overall MSHR miss cycles
system.l2.demand_mshr_miss_rate::.cpu.inst     0.818033                       # mshr miss rate for demand accesses
system.l2.demand_mshr_miss_rate::.cpu.data     0.973364                       # mshr miss rate for demand accesses
system.l2.demand_mshr_miss_rate::total       0.973302                       # mshr miss rate for demand accesses
system.l2.overall_mshr_miss_rate::.cpu.inst     0.818033                       # mshr miss rate for overall accesses
system.l2.overall_mshr_miss_rate::.cpu.data     0.973364                       # mshr miss rate for overall accesses
system.l2.overall_mshr_miss_rate::total      0.973302                       # mshr miss rate for overall accesses
system.l2.demand_avg_mshr_miss_latency::.cpu.inst 65556.112224                       # average overall mshr miss latency
system.l2.demand_avg_mshr_miss_latency::.cpu.data 70188.311156                       # average overall mshr miss latency
system.l2.demand_avg_mshr_miss_latency::total 70186.757869                       # average overall mshr miss latency
system.l2.overall_avg_mshr_miss_latency::.cpu.inst 65556.112224                       # average overall mshr miss latency
system.l2.overall_avg_mshr_miss_latency::.cpu.data 70188.311156                       # average overall mshr miss latency
system.l2.overall_avg_mshr_miss_latency::total 70186.757869                       # average overall mshr miss latency
system.l2.replacements                        1479922                       # number of replacements
system.l2.WritebackDirty_hits::.writebacks      1516072                       # number of WritebackDirty hits
system.l2.WritebackDirty_hits::total          1516072                       # number of WritebackDirty hits
system.l2.WritebackDirty_accesses::.writebacks      1516072                       # number of WritebackDirty accesses(hits+misses)
system.l2.WritebackDirty_accesses::total      1516072                       # number of WritebackDirty accesses(hits+misses)
system.l2.WritebackClean_hits::.writebacks          198                       # number of WritebackClean hits
system.l2.WritebackClean_hits::total              198                       # number of WritebackClean hits
system.l2.WritebackClean_accesses::.writebacks          198                       # number of WritebackClean accesses(hits+misses)
system.l2.WritebackClean_accesses::total          198                       # number of WritebackClean accesses(hits+misses)
system.l2.ReadExReq_hits::.cpu.data             17430                       # number of ReadExReq hits
system.l2.ReadExReq_hits::total                 17430                       # number of ReadExReq hits
system.l2.ReadExReq_misses::.cpu.data         1487503                       # number of ReadExReq misses
system.l2.ReadExReq_misses::total             1487503                       # number of ReadExReq misses
system.l2.ReadExReq_miss_latency::.cpu.data 119280064500                       # number of ReadExReq miss cycles
system.l2.ReadExReq_miss_latency::total  119280064500                       # number of ReadExReq miss cycles
system.l2.ReadExReq_accesses::.cpu.data       1504933                       # number of ReadExReq accesses(hits+misses)
system.l2.ReadExReq_accesses::total           1504933                       # number of ReadExReq accesses(hits+misses)
system.l2.ReadExReq_miss_rate::.cpu.data     0.988418                       # miss rate for ReadExReq accesses
system.l2.ReadExReq_miss_rate::total         0.988418                       # miss rate for ReadExReq accesses
system.l2.ReadExReq_avg_miss_latency::.cpu.data 80188.116932                       # average ReadExReq miss latency
system.l2.ReadExReq_avg_miss_latency::total 80188.116932                       # average ReadExReq miss latency
system.l2.ReadExReq_mshr_misses::.cpu.data      1487503                       # number of ReadExReq MSHR misses
system.l2.ReadExReq_mshr_misses::total        1487503                       # number of ReadExReq MSHR misses
system.l2.ReadExReq_mshr_miss_latency::.cpu.data 104405034500                       # number of ReadExReq MSHR miss cycles
system.l2.ReadExReq_mshr_miss_latency::total 104405034500                       # number of ReadExReq MSHR miss cycles
system.l2.ReadExReq_mshr_miss_rate::.cpu.data     0.988418                       # mshr miss rate for ReadExReq accesses
system.l2.ReadExReq_mshr_miss_rate::total     0.988418                       # mshr miss rate for ReadExReq accesses
system.l2.ReadExReq_avg_mshr_miss_latency::.cpu.data 70188.116932                       # average ReadExReq mshr miss latency
system.l2.ReadExReq_avg_mshr_miss_latency::total 70188.116932                       # average ReadExReq mshr miss latency
system.l2.ReadCleanReq_hits::.cpu.inst            109                       # number of ReadCleanReq hits
system.l2.ReadCleanReq_hits::total                109                       # number of ReadCleanReq hits
system.l2.ReadCleanReq_misses::.cpu.inst          501                       # number of ReadCleanReq misses
system.l2.ReadCleanReq_misses::total              501                       # number of ReadCleanReq misses
system.l2.ReadCleanReq_miss_latency::.cpu.inst     37839000                       # number of ReadCleanReq miss cycles
system.l2.ReadCleanReq_miss_latency::total     37839000                       # number of ReadCleanReq miss cycles
system.l2.ReadCleanReq_accesses::.cpu.inst          610                       # number of ReadCleanReq accesses(hits+misses)
system.l2.ReadCleanReq_accesses::total            610                       # number of ReadCleanReq accesses(hits+misses)
system.l2.ReadCleanReq_miss_rate::.cpu.inst     0.821311                       # miss rate for ReadCleanReq accesses
system.l2.ReadCleanReq_miss_rate::total      0.821311                       # miss rate for ReadCleanReq accesses
system.l2.ReadCleanReq_avg_miss_latency::.cpu.inst 75526.946108                       # average ReadCleanReq miss latency
system.l2.ReadCleanReq_avg_miss_latency::total 75526.946108                       # average ReadCleanReq miss latency
system.l2.ReadCleanReq_mshr_hits::.cpu.inst            2                       # number of ReadCleanReq MSHR hits
system.l2.ReadCleanReq_mshr_hits::total             2                       # number of ReadCleanReq MSHR hits
system.l2.ReadCleanReq_mshr_misses::.cpu.inst          499                       # number of ReadCleanReq MSHR misses
system.l2.ReadCleanReq_mshr_misses::total          499                       # number of ReadCleanReq MSHR misses
system.l2.ReadCleanReq_mshr_miss_latency::.cpu.inst     32712500                       # number of ReadCleanReq MSHR miss cycles
system.l2.ReadCleanReq_mshr_miss_latency::total     32712500                       # number of ReadCleanReq MSHR miss cycles
system.l2.ReadCleanReq_mshr_miss_rate::.cpu.inst     0.818033                       # mshr miss rate for ReadCleanReq accesses
system.l2.ReadCleanReq_mshr_miss_rate::total     0.818033                       # mshr miss rate for ReadCleanReq accesses
system.l2.ReadCleanReq_avg_mshr_miss_latency::.cpu.inst 65556.112224                       # average ReadCleanReq mshr miss latency
system.l2.ReadCleanReq_avg_mshr_miss_latency::total 65556.112224                       # average ReadCleanReq mshr miss latency
system.l2.ReadSharedReq_hits::.cpu.data         23276                       # number of ReadSharedReq hits
system.l2.ReadSharedReq_hits::total             23276                       # number of ReadSharedReq hits
system.l2.ReadSharedReq_misses::.cpu.data          115                       # number of ReadSharedReq misses
system.l2.ReadSharedReq_misses::total             115                       # number of ReadSharedReq misses
system.l2.ReadSharedReq_miss_latency::.cpu.data      9471500                       # number of ReadSharedReq miss cycles
system.l2.ReadSharedReq_miss_latency::total      9471500                       # number of ReadSharedReq miss cycles
system.l2.ReadSharedReq_accesses::.cpu.data        23391                       # number of ReadSharedReq accesses(hits+misses)
system.l2.ReadSharedReq_accesses::total         23391                       # number of ReadSharedReq accesses(hits+misses)
system.l2.ReadSharedReq_miss_rate::.cpu.data     0.004916                       # miss rate for ReadSharedReq accesses
system.l2.ReadSharedReq_miss_rate::total     0.004916                       # miss rate for ReadSharedReq accesses
system.l2.ReadSharedReq_avg_miss_latency::.cpu.data 82360.869565                       # average ReadSharedReq miss latency
system.l2.ReadSharedReq_avg_miss_latency::total 82360.869565                       # average ReadSharedReq miss latency
system.l2.ReadSharedReq_mshr_hits::.cpu.data            3                       # number of ReadSharedReq MSHR hits
system.l2.ReadSharedReq_mshr_hits::total            3                       # number of ReadSharedReq MSHR hits
system.l2.ReadSharedReq_mshr_misses::.cpu.data          112                       # number of ReadSharedReq MSHR misses
system.l2.ReadSharedReq_mshr_misses::total          112                       # number of ReadSharedReq MSHR misses
system.l2.ReadSharedReq_mshr_miss_latency::.cpu.data      8150000                       # number of ReadSharedReq MSHR miss cycles
system.l2.ReadSharedReq_mshr_miss_latency::total      8150000                       # number of ReadSharedReq MSHR miss cycles
system.l2.ReadSharedReq_mshr_miss_rate::.cpu.data     0.004788                       # mshr miss rate for ReadSharedReq accesses
system.l2.ReadSharedReq_mshr_miss_rate::total     0.004788                       # mshr miss rate for ReadSharedReq accesses
system.l2.ReadSharedReq_avg_mshr_miss_latency::.cpu.data 72767.857143                       # average ReadSharedReq mshr miss latency
system.l2.ReadSharedReq_avg_mshr_miss_latency::total 72767.857143                       # average ReadSharedReq mshr miss latency
system.l2.power_state.pwrStateResidencyTicks::UNDEFINED 176097537000                       # Cumulative time (in ticks) in various power states
system.l2.tags.tagsinuse                  8170.777620                       # Cycle average of tags in use
system.l2.tags.total_refs                     3045293                       # Total number of references to valid blocks.
system.l2.tags.sampled_refs                   1488114                       # Sample count of references to valid blocks.
system.l2.tags.avg_refs                      2.046411                       # Average number of references to valid blocks.
system.l2.tags.warmup_cycle                     77000                       # Cycle when the warmup percentage was hit.
system.l2.tags.occ_blocks::.cpu.inst         3.056746                       # Average occupied blocks per requestor
system.l2.tags.occ_blocks::.cpu.data      8167.720874                       # Average occupied blocks per requestor
system.l2.tags.occ_percent::.cpu.inst        0.000373                       # Average percentage of cache occupancy
system.l2.tags.occ_percent::.cpu.data        0.997036                       # Average percentage of cache occupancy
system.l2.tags.occ_percent::total            0.997409                       # Average percentage of cache occupancy
system.l2.tags.occ_task_id_blocks::1024          8192                       # Occupied blocks per task id
system.l2.tags.age_task_id_blocks_1024::0           86                       # Occupied blocks per task id
system.l2.tags.age_task_id_blocks_1024::1          757                       # Occupied blocks per task id
system.l2.tags.age_task_id_blocks_1024::2         7347                       # Occupied blocks per task id
system.l2.tags.age_task_id_blocks_1024::4            2                       # Occupied blocks per task id
system.l2.tags.occ_task_id_percent::1024            1                       # Percentage of cache occupancy per task id
system.l2.tags.tag_accesses                   7578710                       # Number of tag accesses
system.l2.tags.data_accesses                  7578710                       # Number of data accesses
system.l2.tags.power_state.pwrStateResidencyTicks::UNDEFINED 176097537000                       # Cumulative time (in ticks) in various power states
system.mem_ctrls.avgPriority_.writebacks::samples   1479329.00                       # Average QoS priority value for accepted requests
system.mem_ctrls.avgPriority_.cpu.inst::samples       499.00                       # Average QoS priority value for accepted requests
system.mem_ctrls.avgPriority_.cpu.data::samples   1487615.00                       # Average QoS priority value for accepted requests
system.mem_ctrls.priorityMinLatency      0.000000018750                       # per QoS priority minimum request to response latency (s)
system.mem_ctrls.priorityMaxLatency      0.000492282500                       # per QoS priority maximum request to response latency (s)
system.mem_ctrls.numReadWriteTurnArounds        92340                       # Number of turnarounds from READ to WRITE
system.mem_ctrls.numWriteReadTurnArounds        92340                       # Number of turnarounds from WRITE to READ
system.mem_ctrls.numStayReadState             4405740                       # Number of times bus staying in READ state
system.mem_ctrls.numStayWriteState            1390191                       # Number of times bus staying in WRITE state
system.mem_ctrls.readReqs                     1488114                       # Number of read requests accepted
system.mem_ctrls.writeReqs                    1479329                       # Number of write requests accepted
system.mem_ctrls.readBursts                   1488114                       # Number of controller read bursts, including those serviced by the write queue
system.mem_ctrls.writeBursts                  1479329                       # Number of controller write bursts, including those merged in the write queue
system.mem_ctrls.servicedByWrQ                      0                       # Number of controller read bursts serviced by the write queue
system.mem_ctrls.mergedWrBursts                     0                       # Number of controller write bursts merged with an existing one
system.mem_ctrls.neitherReadNorWriteReqs            0                       # Number of requests that are neither read nor write
system.mem_ctrls.avgRdQLen                       1.00                       # Average read queue length when enqueuing
system.mem_ctrls.avgWrQLen                      25.76                       # Average write queue length when enqueuing
system.mem_ctrls.numRdRetry                         0                       # Number of times read queue was full causing retry
system.mem_ctrls.numWrRetry                         0                       # Number of times write queue was full causing retry
system.mem_ctrls.readPktSize::0                     0                       # Read request sizes (log2)
system.mem_ctrls.readPktSize::1                     0                       # Read request sizes (log2)
system.mem_ctrls.readPktSize::2                     0                       # Read request sizes (log2)
system.mem_ctrls.readPktSize::3                     0                       # Read request sizes (log2)
system.mem_ctrls.readPktSize::4                     0                       # Read request sizes (log2)
system.mem_ctrls.readPktSize::5                     0                       # Read request sizes (log2)
system.mem_ctrls.readPktSize::6               1488114                       # Read request sizes (log2)
system.mem_ctrls.writePktSize::0                    0                       # Write request sizes (log2)
system.mem_ctrls.writePktSize::1                    0                       # Write request sizes (log2)
system.mem_ctrls.writePktSize::2                    0                       # Write request sizes (log2)
system.mem_ctrls.writePktSize::3                    0                       # Write request sizes (log2)
system.mem_ctrls.writePktSize::4                    0                       # Write request sizes (log2)
system.mem_ctrls.writePktSize::5                    0                       # Write request sizes (log2)
system.mem_ctrls.writePktSize::6              1479329                       # Write request sizes (log2)
system.mem_ctrls.rdQLenPdf::0                 1488021                       # What read queue length does an incoming req see
system.mem_ctrls.rdQLenPdf::1                      86                       # What read queue length does an incoming req see
system.mem_ctrls.rdQLenPdf::2                       6                       # What read queue length does an incoming req see
system.mem_ctrls.rdQLenPdf::3                       1                       # What read queue length does an incoming req see
system.mem_ctrls.rdQLenPdf::4                       0                       # What read queue length does an incoming req see
system.mem_ctrls.rdQLenPdf::5                       0                       # What read queue length does an incoming req see
system.mem_ctrls.rdQLenPdf::6                       0                       # What read queue length does an incoming req see
system.mem_ctrls.rdQLenPdf::7                       0                       # What read queue length does an incoming req see
system.mem_ctrls.rdQLenPdf::8                       0                       # What read queue length does an incoming req see
system.mem_ctrls.rdQLenPdf::9                       0                       # What read queue length does an incoming req see
system.mem_ctrls.rdQLenPdf::10                      0                       # What read queue length does an incoming req see
system.mem_ctrls.rdQLenPdf::11                      0                       # What read queue length does an incoming req see
system.mem_ctrls.rdQLenPdf::12                      0                       # What read queue length does an incoming req see
[...]
system.mem_ctrls.dram.bw_write::.writebacks    537639865                       # Write bandwidth from this memory (bytes/s)
system.mem_ctrls.dram.bw_write::total       537639865                       # Write bandwidth from this memory (bytes/s)
system.mem_ctrls.dram.bw_total::.writebacks    537639865                       # Total bandwidth to/from this memory (bytes/s)
system.mem_ctrls.dram.bw_total::.cpu.inst       181354                       # Total bandwidth to/from this memory (bytes/s)
system.mem_ctrls.dram.bw_total::.cpu.data    540651287                       # Total bandwidth to/from this memory (bytes/s)
system.mem_ctrls.dram.bw_total::total      1078472506                       # Total bandwidth to/from this memory (bytes/s)
system.mem_ctrls.dram.readBursts              1488114                       # Number of DRAM read bursts
system.mem_ctrls.dram.writeBursts             1479304                       # Number of DRAM write bursts
system.mem_ctrls.dram.perBankRdBursts::0        93032                       # Per bank write bursts
system.mem_ctrls.dram.perBankRdBursts::1        92977                       # Per bank write bursts
system.mem_ctrls.dram.perBankRdBursts::2        93001                       # Per bank write bursts
system.mem_ctrls.dram.perBankRdBursts::3        92952                       # Per bank write bursts
system.mem_ctrls.dram.perBankRdBursts::4        92981                       # Per bank write bursts
system.mem_ctrls.dram.perBankRdBursts::5        93010                       # Per bank write bursts
system.mem_ctrls.dram.perBankRdBursts::6        93062                       # Per bank write bursts
system.mem_ctrls.dram.perBankRdBursts::7        93077                       # Per bank write bursts
system.mem_ctrls.dram.perBankRdBursts::8        93154                       # Per bank write bursts
system.mem_ctrls.dram.perBankRdBursts::9        93077                       # Per bank write bursts
system.mem_ctrls.dram.perBankRdBursts::10        92960                       # Per bank write bursts
system.mem_ctrls.dram.perBankRdBursts::11        92950                       # Per bank write bursts
system.mem_ctrls.dram.perBankRdBursts::12        92997                       # Per bank write bursts
system.mem_ctrls.dram.perBankRdBursts::13        92953                       # Per bank write bursts
system.mem_ctrls.dram.perBankRdBursts::14        92960                       # Per bank write bursts
system.mem_ctrls.dram.perBankRdBursts::15        92971                       # Per bank write bursts
system.mem_ctrls.dram.perBankWrBursts::0        92420                       # Per bank write bursts
system.mem_ctrls.dram.perBankWrBursts::1        92456                       # Per bank write bursts
system.mem_ctrls.dram.perBankWrBursts::2        92442                       # Per bank write bursts
system.mem_ctrls.dram.perBankWrBursts::3        92431                       # Per bank write bursts
system.mem_ctrls.dram.perBankWrBursts::4        92422                       # Per bank write bursts
system.mem_ctrls.dram.perBankWrBursts::5        92481                       # Per bank write bursts
system.mem_ctrls.dram.perBankWrBursts::6        92544                       # Per bank write bursts
system.mem_ctrls.dram.perBankWrBursts::7        92544                       # Per bank write bursts
system.mem_ctrls.dram.perBankWrBursts::8        92544                       # Per bank write bursts
system.mem_ctrls.dram.perBankWrBursts::9        92524                       # Per bank write bursts
system.mem_ctrls.dram.perBankWrBursts::10        92416                       # Per bank write bursts
system.mem_ctrls.dram.perBankWrBursts::11        92416                       # Per bank write bursts
system.mem_ctrls.dram.perBankWrBursts::12        92416                       # Per bank write bursts
system.mem_ctrls.dram.perBankWrBursts::13        92416                       # Per bank write bursts
system.mem_ctrls.dram.perBankWrBursts::14        92416                       # Per bank write bursts
system.mem_ctrls.dram.perBankWrBursts::15        92416                       # Per bank write bursts
system.mem_ctrls.dram.totQLat             15283236500                       # Total ticks spent queuing
system.mem_ctrls.dram.totBusLat            7440570000                       # Total ticks spent in databus transfers
system.mem_ctrls.dram.totMemAccLat        43185374000                       # Total ticks spent from burst creation until serviced by the DRAM
system.mem_ctrls.dram.avgQLat                10270.21                       # Average queueing delay per DRAM burst
system.mem_ctrls.dram.avgBusLat               5000.00                       # Average bus latency per DRAM burst
system.mem_ctrls.dram.avgMemAccLat           29020.21                       # Average memory access latency per DRAM burst
system.mem_ctrls.dram.readRowHits             1363027                       # Number of row buffer hits during reads
system.mem_ctrls.dram.writeRowHits            1373769                       # Number of row buffer hits during writes
system.mem_ctrls.dram.readRowHitRate            91.59                       # Row buffer hit rate for reads
system.mem_ctrls.dram.writeRowHitRate           92.87                       # Row buffer hit rate for writes
system.mem_ctrls.dram.bytesPerActivate::samples       230620                       # Bytes accessed per row activation
system.mem_ctrls.dram.bytesPerActivate::mean   823.494233                       # Bytes accessed per row activation
system.mem_ctrls.dram.bytesPerActivate::gmean   694.394390                       # Bytes accessed per row activation
system.mem_ctrls.dram.bytesPerActivate::stdev   319.379586                       # Bytes accessed per row activation
system.mem_ctrls.dram.bytesPerActivate::0-127        10130      4.39%      4.39% # Bytes accessed per row activation
system.mem_ctrls.dram.bytesPerActivate::128-255        14550      6.31%     10.70% # Bytes accessed per row activation
system.mem_ctrls.dram.bytesPerActivate::256-383         8321      3.61%     14.31% # Bytes accessed per row activation
system.mem_ctrls.dram.bytesPerActivate::384-511        10315      4.47%     18.78% # Bytes accessed per row activation
system.mem_ctrls.dram.bytesPerActivate::512-639        10054      4.36%     23.14% # Bytes accessed per row activation
system.mem_ctrls.dram.bytesPerActivate::640-767         8875      3.85%     26.99% # Bytes accessed per row activation
system.mem_ctrls.dram.bytesPerActivate::768-895        10257      4.45%     31.44% # Bytes accessed per row activation
system.mem_ctrls.dram.bytesPerActivate::896-1023        13002      5.64%     37.08% # Bytes accessed per row activation
system.mem_ctrls.dram.bytesPerActivate::1024-1151       145116     62.92%    100.00% # Bytes accessed per row activation
system.mem_ctrls.dram.bytesPerActivate::total       230620                       # Bytes accessed per row activation
system.mem_ctrls.dram.bytesRead              95239296                       # Total number of bytes read from DRAM
system.mem_ctrls.dram.bytesWritten           94675456                       # Total number of bytes written to DRAM
system.mem_ctrls.dram.avgRdBW              540.832641                       # Average DRAM read bandwidth in MiBytes/s
system.mem_ctrls.dram.avgWrBW              537.630779                       # Average DRAM write bandwidth in MiBytes/s
system.mem_ctrls.dram.peakBW                 12800.00                       # Theoretical peak bandwidth in MiByte/s
system.mem_ctrls.dram.busUtil                    8.43                       # Data bus utilization in percentage
system.mem_ctrls.dram.busUtilRead                4.23                       # Data bus utilization in percentage for reads
system.mem_ctrls.dram.busUtilWrite               4.20                       # Data bus utilization in percentage for writes
system.mem_ctrls.dram.pageHitRate               92.23                       # Row buffer hit rate, read and write combined
system.mem_ctrls.dram.power_state.pwrStateResidencyTicks::UNDEFINED 176097537000                       # Cumulative time (in ticks) in various power states
system.mem_ctrls.dram.rank0.actEnergy       825005580                       # Energy for activate commands per rank (pJ)
system.mem_ctrls.dram.rank0.preEnergy       438500865                       # Energy for precharge commands per rank (pJ)
system.mem_ctrls.dram.rank0.readEnergy     5312816880                       # Energy for read commands per rank (pJ)
system.mem_ctrls.dram.rank0.writeEnergy    3861442800                       # Energy for write commands per rank (pJ)
system.mem_ctrls.dram.rank0.refreshEnergy 13900698240.000002                       # Energy for refresh commands per rank (pJ)
system.mem_ctrls.dram.rank0.actBackEnergy  41836810410                       # Energy for active background per rank (pJ)
system.mem_ctrls.dram.rank0.preBackEnergy  32390456160                       # Energy for precharge background per rank (pJ)
system.mem_ctrls.dram.rank0.actPowerDownEnergy            0                       # Energy for active power-down per rank (pJ)
system.mem_ctrls.dram.rank0.prePowerDownEnergy            0                       # Energy for precharge power-down per rank (pJ)
system.mem_ctrls.dram.rank0.selfRefreshEnergy            0                       # Energy for self refresh per rank (pJ)
system.mem_ctrls.dram.rank0.totalEnergy   98565730935                       # Total energy per rank (pJ)
system.mem_ctrls.dram.rank0.averagePower   559.722371                       # Core power per rank (mW)
system.mem_ctrls.dram.rank0.totalIdleTime            0                       # Total Idle time Per DRAM Rank
system.mem_ctrls.dram.rank0.pwrStateTime::IDLE  82991505000                       # Time in different power states
system.mem_ctrls.dram.rank0.pwrStateTime::REF   5880160000                       # Time in different power states
system.mem_ctrls.dram.rank0.pwrStateTime::SREF            0                       # Time in different power states
system.mem_ctrls.dram.rank0.pwrStateTime::PRE_PDN            0                       # Time in different power states
system.mem_ctrls.dram.rank0.pwrStateTime::ACT  87225872000                       # Time in different power states
system.mem_ctrls.dram.rank0.pwrStateTime::ACT_PDN            0                       # Time in different power states
system.mem_ctrls.dram.rank1.actEnergy       821635500                       # Energy for activate commands per rank (pJ)
system.mem_ctrls.dram.rank1.preEnergy       436702035                       # Energy for precharge commands per rank (pJ)
system.mem_ctrls.dram.rank1.readEnergy     5312317080                       # Energy for read commands per rank (pJ)
system.mem_ctrls.dram.rank1.writeEnergy    3860524080                       # Energy for write commands per rank (pJ)
system.mem_ctrls.dram.rank1.refreshEnergy 13900698240.000002                       # Energy for refresh commands per rank (pJ)
system.mem_ctrls.dram.rank1.actBackEnergy  41796076500                       # Energy for active background per rank (pJ)
system.mem_ctrls.dram.rank1.preBackEnergy  32424758400                       # Energy for precharge background per rank (pJ)
system.mem_ctrls.dram.rank1.actPowerDownEnergy            0                       # Energy for active power-down per rank (pJ)
system.mem_ctrls.dram.rank1.prePowerDownEnergy            0                       # Energy for precharge power-down per rank (pJ)
system.mem_ctrls.dram.rank1.selfRefreshEnergy            0                       # Energy for self refresh per rank (pJ)
system.mem_ctrls.dram.rank1.totalEnergy   98552711835                       # Total energy per rank (pJ)
system.mem_ctrls.dram.rank1.averagePower   559.648440                       # Core power per rank (mW)
system.mem_ctrls.dram.rank1.totalIdleTime            0                       # Total Idle time Per DRAM Rank
system.mem_ctrls.dram.rank1.pwrStateTime::IDLE  83071183500                       # Time in different power states
system.mem_ctrls.dram.rank1.pwrStateTime::REF   5880160000                       # Time in different power states
system.mem_ctrls.dram.rank1.pwrStateTime::SREF            0                       # Time in different power states
system.mem_ctrls.dram.rank1.pwrStateTime::PRE_PDN            0                       # Time in different power states
system.mem_ctrls.dram.rank1.pwrStateTime::ACT  87146193500                       # Time in different power states
system.mem_ctrls.dram.rank1.pwrStateTime::ACT_PDN            0                       # Time in different power states
system.mem_ctrls.power_state.pwrStateResidencyTicks::UNDEFINED 176097537000                       # Cumulative time (in ticks) in various power states
system.membus.trans_dist::ReadResp                611                       # Transaction distribution
system.membus.trans_dist::WritebackDirty      1479329                       # Transaction distribution
system.membus.trans_dist::CleanEvict              192                       # Transaction distribution
system.membus.trans_dist::ReadExReq           1487503                       # Transaction distribution
system.membus.trans_dist::ReadExResp          1487503                       # Transaction distribution
system.membus.trans_dist::ReadSharedReq           611                       # Transaction distribution
system.membus.pkt_count_system.l2.mem_side_port::system.mem_ctrls.port      4455749                       # Packet count per connected requestor and responder (bytes)
system.membus.pkt_count::total                4455749                       # Packet count per connected requestor and responder (bytes)
system.membus.pkt_size_system.l2.mem_side_port::system.mem_ctrls.port    189916352                       # Cumulative packet size per connected requestor and responder (bytes)
system.membus.pkt_size::total               189916352                       # Cumulative packet size per connected requestor and responder (bytes)
system.membus.snoops                                0                       # Total snoops (count)
system.membus.snoopTraffic                          0                       # Total snoop traffic (bytes)
system.membus.snoop_fanout::samples           1488114                       # Request fanout histogram
system.membus.snoop_fanout::mean                    0                       # Request fanout histogram
system.membus.snoop_fanout::stdev                   0                       # Request fanout histogram
system.membus.snoop_fanout::underflows              0      0.00%      0.00% # Request fanout histogram
system.membus.snoop_fanout::0                 1488114    100.00%    100.00% # Request fanout histogram
system.membus.snoop_fanout::1                       0      0.00%    100.00% # Request fanout histogram
system.membus.snoop_fanout::overflows               0      0.00%    100.00% # Request fanout histogram
system.membus.snoop_fanout::min_value               0                       # Request fanout histogram
system.membus.snoop_fanout::max_value               0                       # Request fanout histogram
system.membus.snoop_fanout::total             1488114                       # Request fanout histogram
system.membus.power_state.pwrStateResidencyTicks::UNDEFINED 176097537000                       # Cumulative time (in ticks) in various power states
system.membus.reqLayer0.occupancy          9475956000                       # Layer occupancy (ticks)
system.membus.reqLayer0.utilization               5.4                       # Layer utilization (%)
system.membus.respLayer1.occupancy         7841452250                       # Layer occupancy (ticks)
system.membus.respLayer1.utilization              4.5                       # Layer utilization (%)
system.tol2bus.trans_dist::ReadResp             24001                       # Transaction distribution
system.tol2bus.trans_dist::WritebackDirty      2995401                       # Transaction distribution
system.tol2bus.trans_dist::WritebackClean          208                       # Transaction distribution
system.tol2bus.trans_dist::CleanEvict           12333                       # Transaction distribution
system.tol2bus.trans_dist::ReadExReq          1504933                       # Transaction distribution
system.tol2bus.trans_dist::ReadExResp         1504933                       # Transaction distribution
system.tol2bus.trans_dist::ReadCleanReq           610                       # Transaction distribution
system.tol2bus.trans_dist::ReadSharedReq        23391                       # Transaction distribution
system.tol2bus.pkt_count_system.cpu.icache.mem_side_port::system.l2.cpu_side_port         1428                       # Packet count per connected requestor and responder (bytes)
system.tol2bus.pkt_count_system.cpu.dcache.mem_side_port::system.l2.cpu_side_port      4584460                       # Packet count per connected requestor and responder (bytes)
system.tol2bus.pkt_count::total               4585888                       # Packet count per connected requestor and responder (bytes)
system.tol2bus.pkt_size_system.cpu.icache.mem_side_port::system.l2.cpu_side_port        52352                       # Cumulative packet size per connected requestor and responder (bytes)
system.tol2bus.pkt_size_system.cpu.dcache.mem_side_port::system.l2.cpu_side_port    194841344                       # Cumulative packet size per connected requestor and responder (bytes)
system.tol2bus.pkt_size::total              194893696                       # Cumulative packet size per connected requestor and responder (bytes)
system.tol2bus.snoops                         1479922                       # Total snoops (count)
system.tol2bus.snoopTraffic                  94677056                       # Total snoop traffic (bytes)
system.tol2bus.snoop_fanout::samples          3008856                       # Request fanout histogram
system.tol2bus.snoop_fanout::mean            0.004008                       # Request fanout histogram
system.tol2bus.snoop_fanout::stdev           0.063178                       # Request fanout histogram
system.tol2bus.snoop_fanout::underflows             0      0.00%      0.00% # Request fanout histogram
system.tol2bus.snoop_fanout::0                2996798     99.60%     99.60% # Request fanout histogram
system.tol2bus.snoop_fanout::1                  12058      0.40%    100.00% # Request fanout histogram
system.tol2bus.snoop_fanout::2                      0      0.00%    100.00% # Request fanout histogram
system.tol2bus.snoop_fanout::overflows              0      0.00%    100.00% # Request fanout histogram
system.tol2bus.snoop_fanout::min_value              0                       # Request fanout histogram
system.tol2bus.snoop_fanout::max_value              1                       # Request fanout histogram
system.tol2bus.snoop_fanout::total            3008856                       # Request fanout histogram
system.tol2bus.power_state.pwrStateResidencyTicks::UNDEFINED 176097537000                       # Cumulative time (in ticks) in various power states
system.tol2bus.reqLayer0.occupancy         3044757000                       # Layer occupancy (ticks)
system.tol2bus.reqLayer0.utilization              1.7                       # Layer utilization (%)
system.tol2bus.respLayer0.occupancy            915998                       # Layer occupancy (ticks)
system.tol2bus.respLayer0.utilization             0.0                       # Layer utilization (%)
system.tol2bus.respLayer1.occupancy        2292487497                       # Layer occupancy (ticks)
system.tol2bus.respLayer1.utilization             1.3                       # Layer utilization (%)
system.voltage_domain.voltage                       1                       # Voltage in Volts

---------- End Simulation Statistics   ----------
