
---------- Begin Simulation Statistics ----------
final_tick                                   32743000                       # Number of ticks from beginning of simulation (restored from checkpoints and never reset)
host_inst_rate                                 265775                       # Simulator instruction rate (inst/s)
host_mem_usage                                 666176                       # Number of bytes of host memory used
host_op_rate                                   303941                       # Simulator op (including micro ops) rate (op/s)
host_seconds                                     0.04                       # Real time elapsed on the host
host_tick_rate                              765679129                       # Simulator tick rate (ticks/s)
sim_freq                                 1000000000000                       # Frequency of simulated ticks
sim_insts                                       11347                       # Number of instructions simulated
sim_ops                                         12994                       # Number of ops (including micro ops) simulated
sim_seconds                                  0.000033                       # Number of seconds simulated
sim_ticks                                    32743000                       # Number of ticks simulated
system.cpu.committedInsts                       11347                       # Number of instructions committed
system.cpu.committedOps                         12994                       # Number of ops (including micro ops) committed
system.cpu.cpi                               5.771217                       # CPI: cycles per instruction
system.cpu.discardedOps                          2069                       # Number of ops (including micro ops) which were discarded before commit
system.cpu.idleCycles                           44469                       # Total number of cycles that the object has spent stopped
system.cpu.ipc                               0.173274                       # IPC: instructions per cycle
system.cpu.numCycles                            65486                       # number of cpu cycles simulated
system.cpu.numFetchSuspends                         0                       # Number of times Execute suspended instruction fetching
system.cpu.numWorkItemsCompleted                    0                       # number of work items this cpu completed
system.cpu.numWorkItemsStarted                      0                       # number of work items this cpu started
system.cpu.op_class_0::No_OpClass                   0      0.00%      0.00% # Class of committed instruction
system.cpu.op_class_0::IntAlu                    8697     66.93%     66.93% # Class of committed instruction
system.cpu.op_class_0::IntMult                     57      0.44%     67.37% # Class of committed instruction
system.cpu.op_class_0::IntDiv                       0      0.00%     67.37% # Class of committed instruction
system.cpu.op_class_0::FloatAdd                     0      0.00%     67.37% # Class of committed instruction
system.cpu.op_class_0::FloatCmp                     0      0.00%     67.37% # Class of committed instruction
system.cpu.op_class_0::FloatCvt                     0      0.00%     67.37% # Class of committed instruction
system.cpu.op_class_0::FloatMult                    0      0.00%     67.37% # Class of committed instruction
system.cpu.op_class_0::FloatMultAcc                 0      0.00%     67.37% # Class of committed instruction
system.cpu.op_class_0::FloatDiv                     0      0.00%     67.37% # Class of committed instruction
system.cpu.op_class_0::FloatMisc                    0      0.00%     67.37% # Class of committed instruction
system.cpu.op_class_0::FloatSqrt                    0      0.00%     67.37% # Class of committed instruction
system.cpu.op_class_0::SimdAdd                      0      0.00%     67.37% # Class of committed instruction
system.cpu.op_class_0::SimdAddAcc                   0      0.00%     67.37% # Class of committed instruction
system.cpu.op_class_0::SimdAlu                      0      0.00%     67.37% # Class of committed instruction
system.cpu.op_class_0::SimdCmp                      0      0.00%     67.37% # Class of committed instruction
system.cpu.op_class_0::SimdCvt                      0      0.00%     67.37% # Class of committed instruction
system.cpu.op_class_0::SimdMisc                     0      0.00%     67.37% # Class of committed instruction
system.cpu.op_class_0::SimdMult                     0      0.00%     67.37% # Class of committed instruction
system.cpu.op_class_0::SimdMultAcc                  0      0.00%     67.37% # Class of committed instruction
system.cpu.op_class_0::SimdShift                    0      0.00%     67.37% # Class of committed instruction
system.cpu.op_class_0::SimdShiftAcc                 0      0.00%     67.37% # Class of committed instruction
system.cpu.op_class_0::SimdDiv                      0      0.00%     67.37% # Class of committed instruction
system.cpu.op_class_0::SimdSqrt                     0      0.00%     67.37% # Class of committed instruction
system.cpu.op_class_0::SimdFloatAdd                 0      0.00%     67.37% # Class of committed instruction
system.cpu.op_class_0::SimdFloatAlu                 0      0.00%     67.37% # Class of committed instruction
system.cpu.op_class_0::SimdFloatCmp                 0      0.00%     67.37% # Class of committed instruction
system.cpu.op_class_0::SimdFloatCvt                 0      0.00%     67.37% # Class of committed instruction
system.cpu.op_class_0::SimdFloatDiv                 0      0.00%     67.37% # Class of committed instruction
system.cpu.op_class_0::SimdFloatMisc               21      0.16%     67.53% # Class of committed instruction
system.cpu.op_class_0::SimdFloatMult                0      0.00%     67.53% # Class of committed instruction
system.cpu.op_class_0::SimdFloatMultAcc             0      0.00%     67.53% # Class of committed instruction
system.cpu.op_class_0::SimdFloatSqrt                0      0.00%     67.53% # Class of committed instruction
system.cpu.op_class_0::SimdReduceAdd                0      0.00%     67.53% # Class of committed instruction
system.cpu.op_class_0::SimdReduceAlu                0      0.00%     67.53% # Class of committed instruction
system.cpu.op_class_0::SimdReduceCmp                0      0.00%     67.53% # Class of committed instruction
system.cpu.op_class_0::SimdFloatReduceAdd            0      0.00%     67.53% # Class of committed instruction
system.cpu.op_class_0::SimdFloatReduceCmp            0      0.00%     67.53% # Class of committed instruction
system.cpu.op_class_0::SimdAes                      0      0.00%     67.53% # Class of committed instruction
system.cpu.op_class_0::SimdAesMix                   0      0.00%     67.53% # Class of committed instruction
system.cpu.op_class_0::SimdSha1Hash                 0      0.00%     67.53% # Class of committed instruction
system.cpu.op_class_0::SimdSha1Hash2                0      0.00%     67.53% # Class of committed instruction
system.cpu.op_class_0::SimdSha256Hash               0      0.00%     67.53% # Class of committed instruction
system.cpu.op_class_0::SimdSha256Hash2              0      0.00%     67.53% # Class of committed instruction
system.cpu.op_class_0::SimdShaSigma2                0      0.00%     67.53% # Class of committed instruction
system.cpu.op_class_0::SimdShaSigma3                0      0.00%     67.53% # Class of committed instruction
system.cpu.op_class_0::SimdPredAlu                  0      0.00%     67.53% # Class of committed instruction
system.cpu.op_class_0::MemRead                   2187     16.83%     84.36% # Class of committed instruction
system.cpu.op_class_0::MemWrite                  2032     15.64%    100.00% # Class of committed instruction
system.cpu.op_class_0::FloatMemRead                 0      0.00%    100.00% # Class of committed instruction
system.cpu.op_class_0::FloatMemWrite                0      0.00%    100.00% # Class of committed instruction
system.cpu.op_class_0::IprAccess                    0      0.00%    100.00% # Class of committed instruction
system.cpu.op_class_0::InstPrefetch                 0      0.00%    100.00% # Class of committed instruction
system.cpu.op_class_0::total                    12994                       # Class of committed instruction
system.cpu.tickCycles                           21017                       # Number of cycles that the object actually ticked
system.cpu.workload.numSyscalls                    14                       # Number of system calls
system.membus.snoop_filter.hit_multi_requests            4                       # Number of requests hitting in the snoop filter with multiple (>1) holders of the requested data.
system.membus.snoop_filter.hit_multi_snoops            0                       # Number of snoops hitting in the snoop filter with multiple (>1) holders of the requested data.
system.membus.snoop_filter.hit_single_requests          124                       # Number of requests hitting in the snoop filter with a single holder of the requested data.
system.membus.snoop_filter.hit_single_snoops            0                       # Number of snoops hitting in the snoop filter with a single holder of the requested data.
system.membus.snoop_filter.tot_requests           703                       # Total number of requests made to the snoop filter.
system.membus.snoop_filter.tot_snoops               0                       # Total number of snoops made to the snoop filter.
system.clk_domain.clock                           270                       # Clock period in ticks
system.cpu.branchPred.lookups                    3821                       # Number of BP lookups
system.cpu.branchPred.condPredicted              2542                       # Number of conditional branches predicted
system.cpu.branchPred.condIncorrect               621                       # Number of conditional branches incorrect
system.cpu.branchPred.BTBLookups                 1800                       # Number of BTB lookups
system.cpu.branchPred.BTBHits                     857                       # Number of BTB hits
system.cpu.branchPred.BTBHitPct             47.611111                       # BTB Hit Percentage
system.cpu.branchPred.RASUsed                     332                       # Number of times the RAS was used to get a target.
system.cpu.branchPred.RASIncorrect                  2                       # Number of incorrect RAS predictions.
system.cpu.branchPred.indirectLookups             191                       # Number of indirect predictor lookups.
system.cpu.branchPred.indirectHits                 42                       # Number of indirect target hits.
system.cpu.branchPred.indirectMisses              149                       # Number of indirect misses.
system.cpu.branchPred.indirectMispredicted           74                       # Number of mispredicted indirect branches.
system.cpu.dcache.demand_hits::.cpu.data         4098                       # number of demand (read+write) hits
system.cpu.dcache.demand_hits::total             4098                       # number of demand (read+write) hits
system.cpu.dcache.overall_hits::.cpu.data         4119                       # number of overall hits
system.cpu.dcache.overall_hits::total            4119                       # number of overall hits
system.cpu.dcache.demand_misses::.cpu.data          224                       # number of demand (read+write) misses
system.cpu.dcache.demand_misses::total            224                       # number of demand (read+write) misses
system.cpu.dcache.overall_misses::.cpu.data          236                       # number of overall misses
system.cpu.dcache.overall_misses::total           236                       # number of overall misses
system.cpu.dcache.demand_miss_latency::.cpu.data     11521900                       # number of demand (read+write) miss cycles
system.cpu.dcache.demand_miss_latency::total     11521900                       # number of demand (read+write) miss cycles
system.cpu.dcache.overall_miss_latency::.cpu.data     11521900                       # number of overall miss cycles
system.cpu.dcache.overall_miss_latency::total     11521900                       # number of overall miss cycles
system.cpu.dcache.demand_accesses::.cpu.data         4322                       # number of demand (read+write) accesses
system.cpu.dcache.demand_accesses::total         4322                       # number of demand (read+write) accesses
system.cpu.dcache.overall_accesses::.cpu.data         4355                       # number of overall (read+write) accesses
system.cpu.dcache.overall_accesses::total         4355                       # number of overall (read+write) accesses
system.cpu.dcache.demand_miss_rate::.cpu.data     0.051828                       # miss rate for demand accesses
system.cpu.dcache.demand_miss_rate::total     0.051828                       # miss rate for demand accesses
system.cpu.dcache.overall_miss_rate::.cpu.data     0.054191                       # miss rate for overall accesses
system.cpu.dcache.overall_miss_rate::total     0.054191                       # miss rate for overall accesses
system.cpu.dcache.demand_avg_miss_latency::.cpu.data 51437.053571                       # average overall miss latency
system.cpu.dcache.demand_avg_miss_latency::total 51437.053571                       # average overall miss latency
system.cpu.dcache.overall_avg_miss_latency::.cpu.data 48821.610169                       # average overall miss latency
system.cpu.dcache.overall_avg_miss_latency::total 48821.610169                       # average overall miss latency
system.cpu.dcache.blocked_cycles::no_mshrs            0                       # number of cycles access was blocked
system.cpu.dcache.blocked_cycles::no_targets            0                       # number of cycles access was blocked
system.cpu.dcache.blocked::no_mshrs                 0                       # number of cycles access was blocked
system.cpu.dcache.blocked::no_targets               0                       # number of cycles access was blocked
system.cpu.dcache.avg_blocked_cycles::no_mshrs          nan                       # average number of cycles each access was blocked
system.cpu.dcache.avg_blocked_cycles::no_targets          nan                       # average number of cycles each access was blocked
system.cpu.dcache.demand_mshr_hits::.cpu.data           56                       # number of demand (read+write) MSHR hits
system.cpu.dcache.demand_mshr_hits::total           56                       # number of demand (read+write) MSHR hits
system.cpu.dcache.overall_mshr_hits::.cpu.data           56                       # number of overall MSHR hits
system.cpu.dcache.overall_mshr_hits::total           56                       # number of overall MSHR hits
system.cpu.dcache.demand_mshr_misses::.cpu.data          168                       # number of demand (read+write) MSHR misses
system.cpu.dcache.demand_mshr_misses::total          168                       # number of demand (read+write) MSHR misses
system.cpu.dcache.overall_mshr_misses::.cpu.data          177                       # number of overall MSHR misses
system.cpu.dcache.overall_mshr_misses::total          177                       # number of overall MSHR misses
system.cpu.dcache.demand_mshr_miss_latency::.cpu.data      8711870                       # number of demand (read+write) MSHR miss cycles
system.cpu.dcache.demand_mshr_miss_latency::total      8711870                       # number of demand (read+write) MSHR miss cycles
system.cpu.dcache.overall_mshr_miss_latency::.cpu.data      9187900                       # number of overall MSHR miss cycles
system.cpu.dcache.overall_mshr_miss_latency::total      9187900                       # number of overall MSHR miss cycles
system.cpu.dcache.demand_mshr_miss_rate::.cpu.data     0.038871                       # mshr miss rate for demand accesses
system.cpu.dcache.demand_mshr_miss_rate::total     0.038871                       # mshr miss rate for demand accesses
system.cpu.dcache.overall_mshr_miss_rate::.cpu.data     0.040643                       # mshr miss rate for overall accesses
system.cpu.dcache.overall_mshr_miss_rate::total     0.040643                       # mshr miss rate for overall accesses
system.cpu.dcache.demand_avg_mshr_miss_latency::.cpu.data 51856.369048                       # average overall mshr miss latency
system.cpu.dcache.demand_avg_mshr_miss_latency::total 51856.369048                       # average overall mshr miss latency
system.cpu.dcache.overall_avg_mshr_miss_latency::.cpu.data 51909.039548                       # average overall mshr miss latency
system.cpu.dcache.overall_avg_mshr_miss_latency::total 51909.039548                       # average overall mshr miss latency
system.cpu.dcache.replacements                      0                       # number of replacements
system.cpu.dcache.ReadReq_hits::.cpu.data         2245                       # number of ReadReq hits
system.cpu.dcache.ReadReq_hits::total            2245                       # number of ReadReq hits
system.cpu.dcache.ReadReq_misses::.cpu.data          106                       # number of ReadReq misses
system.cpu.dcache.ReadReq_misses::total           106                       # number of ReadReq misses
system.cpu.dcache.ReadReq_miss_latency::.cpu.data      5665560                       # number of ReadReq miss cycles
system.cpu.dcache.ReadReq_miss_latency::total      5665560                       # number of ReadReq miss cycles
system.cpu.dcache.ReadReq_accesses::.cpu.data         2351                       # number of ReadReq accesses(hits+misses)
system.cpu.dcache.ReadReq_accesses::total         2351                       # number of ReadReq accesses(hits+misses)
system.cpu.dcache.ReadReq_miss_rate::.cpu.data     0.045087                       # miss rate for ReadReq accesses
system.cpu.dcache.ReadReq_miss_rate::total     0.045087                       # miss rate for ReadReq accesses
system.cpu.dcache.ReadReq_avg_miss_latency::.cpu.data 53448.679245                       # average ReadReq miss latency
system.cpu.dcache.ReadReq_avg_miss_latency::total 53448.679245                       # average ReadReq miss latency
system.cpu.dcache.ReadReq_mshr_hits::.cpu.data            7                       # number of ReadReq MSHR hits
system.cpu.dcache.ReadReq_mshr_hits::total            7                       # number of ReadReq MSHR hits
system.cpu.dcache.ReadReq_mshr_misses::.cpu.data           99                       # number of ReadReq MSHR misses
system.cpu.dcache.ReadReq_mshr_misses::total           99                       # number of ReadReq MSHR misses
system.cpu.dcache.ReadReq_mshr_miss_latency::.cpu.data      5212340                       # number of ReadReq MSHR miss cycles
system.cpu.dcache.ReadReq_mshr_miss_latency::total      5212340                       # number of ReadReq MSHR miss cycles
system.cpu.dcache.ReadReq_mshr_miss_rate::.cpu.data     0.042110                       # mshr miss rate for ReadReq accesses
system.cpu.dcache.ReadReq_mshr_miss_rate::total     0.042110                       # mshr miss rate for ReadReq accesses
system.cpu.dcache.ReadReq_avg_mshr_miss_latency::.cpu.data 52649.898990                       # average ReadReq mshr miss latency
system.cpu.dcache.ReadReq_avg_mshr_miss_latency::total 52649.898990                       # average ReadReq mshr miss latency
system.cpu.dcache.WriteReq_hits::.cpu.data         1853                       # number of WriteReq hits
system.cpu.dcache.WriteReq_hits::total           1853                       # number of WriteReq hits
system.cpu.dcache.WriteReq_misses::.cpu.data          118                       # number of WriteReq misses
system.cpu.dcache.WriteReq_misses::total          118                       # number of WriteReq misses
system.cpu.dcache.WriteReq_miss_latency::.cpu.data      5856340                       # number of WriteReq miss cycles
system.cpu.dcache.WriteReq_miss_latency::total      5856340                       # number of WriteReq miss cycles
system.cpu.dcache.WriteReq_accesses::.cpu.data         1971                       # number of WriteReq accesses(hits+misses)
system.cpu.dcache.WriteReq_accesses::total         1971                       # number of WriteReq accesses(hits+misses)
system.cpu.dcache.WriteReq_miss_rate::.cpu.data     0.059868                       # miss rate for WriteReq accesses
system.cpu.dcache.WriteReq_miss_rate::total     0.059868                       # miss rate for WriteReq accesses
system.cpu.dcache.WriteReq_avg_miss_latency::.cpu.data        49630                       # average WriteReq miss latency
system.cpu.dcache.WriteReq_avg_miss_latency::total        49630                       # average WriteReq miss latency
system.cpu.dcache.WriteReq_mshr_hits::.cpu.data           49                       # number of WriteReq MSHR hits
system.cpu.dcache.WriteReq_mshr_hits::total           49                       # number of WriteReq MSHR hits
system.cpu.dcache.WriteReq_mshr_misses::.cpu.data           69                       # number of WriteReq MSHR misses
system.cpu.dcache.WriteReq_mshr_misses::total           69                       # number of WriteReq MSHR misses
system.cpu.dcache.WriteReq_mshr_miss_latency::.cpu.data      3499530                       # number of WriteReq MSHR miss cycles
system.cpu.dcache.WriteReq_mshr_miss_latency::total      3499530                       # number of WriteReq MSHR miss cycles
system.cpu.dcache.WriteReq_mshr_miss_rate::.cpu.data     0.035008                       # mshr miss rate for WriteReq accesses
system.cpu.dcache.WriteReq_mshr_miss_rate::total     0.035008                       # mshr miss rate for WriteReq accesses
system.cpu.dcache.WriteReq_avg_mshr_miss_latency::.cpu.data 50717.826087                       # average WriteReq mshr miss latency
system.cpu.dcache.WriteReq_avg_mshr_miss_latency::total 50717.826087                       # average WriteReq mshr miss latency
system.cpu.dcache.SoftPFReq_hits::.cpu.data           21                       # number of SoftPFReq hits
system.cpu.dcache.SoftPFReq_hits::total            21                       # number of SoftPFReq hits
system.cpu.dcache.SoftPFReq_misses::.cpu.data           12                       # number of SoftPFReq misses
system.cpu.dcache.SoftPFReq_misses::total           12                       # number of SoftPFReq misses
system.cpu.dcache.SoftPFReq_accesses::.cpu.data           33                       # number of SoftPFReq accesses(hits+misses)
system.cpu.dcache.SoftPFReq_accesses::total           33                       # number of SoftPFReq accesses(hits+misses)
system.cpu.dcache.SoftPFReq_miss_rate::.cpu.data     0.363636                       # miss rate for SoftPFReq accesses
system.cpu.dcache.SoftPFReq_miss_rate::total     0.363636                       # miss rate for SoftPFReq accesses
system.cpu.dcache.SoftPFReq_mshr_misses::.cpu.data            9                       # number of SoftPFReq MSHR misses
system.cpu.dcache.SoftPFReq_mshr_misses::total            9                       # number of SoftPFReq MSHR misses
system.cpu.dcache.SoftPFReq_mshr_miss_latency::.cpu.data       476030                       # number of SoftPFReq MSHR miss cycles
system.cpu.dcache.SoftPFReq_mshr_miss_latency::total       476030                       # number of SoftPFReq MSHR miss cycles
system.cpu.dcache.SoftPFReq_mshr_miss_rate::.cpu.data     0.272727                       # mshr miss rate for SoftPFReq accesses
system.cpu.dcache.SoftPFReq_mshr_miss_rate::total     0.272727                       # mshr miss rate for SoftPFReq accesses
system.cpu.dcache.SoftPFReq_avg_mshr_miss_latency::.cpu.data 52892.222222                       # average SoftPFReq mshr miss latency
system.cpu.dcache.SoftPFReq_avg_mshr_miss_latency::total 52892.222222                       # average SoftPFReq mshr miss latency
system.cpu.dcache.LoadLockedReq_hits::.cpu.data           20                       # number of LoadLockedReq hits
system.cpu.dcache.LoadLockedReq_hits::total           20                       # number of LoadLockedReq hits
system.cpu.dcache.LoadLockedReq_accesses::.cpu.data           20                       # number of LoadLockedReq accesses(hits+misses)
system.cpu.dcache.LoadLockedReq_accesses::total           20                       # number of LoadLockedReq accesses(hits+misses)
system.cpu.dcache.StoreCondReq_hits::.cpu.data           20                       # number of StoreCondReq hits
system.cpu.dcache.StoreCondReq_hits::total           20                       # number of StoreCondReq hits
system.cpu.dcache.StoreCondReq_accesses::.cpu.data           20                       # number of StoreCondReq accesses(hits+misses)
system.cpu.dcache.StoreCondReq_accesses::total           20                       # number of StoreCondReq accesses(hits+misses)
system.cpu.dcache.power_state.pwrStateResidencyTicks::UNDEFINED     32743000                       # Cumulative time (in ticks) in various power states
system.cpu.dcache.tags.tagsinuse           105.122428                       # Cycle average of tags in use
system.cpu.dcache.tags.total_refs                4336                       # Total number of references to valid blocks.
system.cpu.dcache.tags.sampled_refs               177                       # Sample count of references to valid blocks.
system.cpu.dcache.tags.avg_refs             24.497175                       # Average number of references to valid blocks.
system.cpu.dcache.tags.warmup_cycle            129870                       # Cycle when the warmup percentage was hit.
system.cpu.dcache.tags.occ_blocks::.cpu.data   105.122428                       # Average occupied blocks per requestor
system.cpu.dcache.tags.occ_percent::.cpu.data     0.102659                       # Average percentage of cache occupancy
system.cpu.dcache.tags.occ_percent::total     0.102659                       # Average percentage of cache occupancy
system.cpu.dcache.tags.occ_task_id_blocks::1024          177                       # Occupied blocks per task id
system.cpu.dcache.tags.age_task_id_blocks_1024::0           29                       # Occupied blocks per task id
system.cpu.dcache.tags.age_task_id_blocks_1024::1          148                       # Occupied blocks per task id
system.cpu.dcache.tags.occ_task_id_percent::1024     0.172852                       # Percentage of cache occupancy per task id
system.cpu.dcache.tags.tag_accesses              8967                       # Number of tag accesses
system.cpu.dcache.tags.data_accesses             8967                       # Number of data accesses
system.cpu.dcache.tags.power_state.pwrStateResidencyTicks::UNDEFINED     32743000                       # Cumulative time (in ticks) in various power states
system.cpu.dtb.instHits                             0                       # ITB inst hits
system.cpu.dtb.instMisses                           0                       # ITB inst misses
system.cpu.dtb.readHits                             0                       # DTB read hits
system.cpu.dtb.readMisses                           0                       # DTB read misses
system.cpu.dtb.writeHits                            0                       # DTB write hits
system.cpu.dtb.writeMisses                          0                       # DTB write misses
system.cpu.dtb.inserts                              0                       # Number of times an entry is inserted into the TLB
system.cpu.dtb.flushTlb                             0                       # Number of times complete TLB was flushed
system.cpu.dtb.flushTlbMva                          0                       # Number of times TLB was flushed by MVA
system.cpu.dtb.flushTlbMvaAsid                      0                       # Number of times TLB was flushed by MVA & ASID
system.cpu.dtb.flushTlbAsid                         0                       # Number of times TLB was flushed by ASID
system.cpu.dtb.flushedEntries                       0                       # Number of entries that have been flushed from TLB
system.cpu.dtb.alignFaults                          0                       # Number of TLB faults due to alignment restrictions
system.cpu.dtb.prefetchFaults                       0                       # Number of TLB faults due to prefetch
system.cpu.dtb.domainFaults                         0                       # Number of TLB faults due to domain restrictions
system.cpu.dtb.permsFaults                          0                       # Number of TLB faults due to permissions restrictions
system.cpu.dtb.readAccesses                         0                       # DTB read accesses
system.cpu.dtb.writeAccesses                        0                       # DTB write accesses
system.cpu.dtb.instAccesses                         0                       # ITB inst accesses
system.cpu.dtb.hits                                 0                       # Total TLB (inst and data) hits
system.cpu.dtb.misses                               0                       # Total TLB (inst and data) misses
system.cpu.dtb.accesses                             0                       # Total TLB (inst and data) accesses
system.cpu.dtb.stage2_mmu.stage2_tlb.instHits            0                       # ITB inst hits
system.cpu.dtb.stage2_mmu.stage2_tlb.instMisses            0                       # ITB inst misses
system.cpu.dtb.stage2_mmu.stage2_tlb.readHits            0                       # DTB read hits
system.cpu.dtb.stage2_mmu.stage2_tlb.readMisses            0                       # DTB read misses
system.cpu.dtb.stage2_mmu.stage2_tlb.writeHits            0                       # DTB write hits
system.cpu.dtb.stage2_mmu.stage2_tlb.writeMisses            0                       # DTB write misses
system.cpu.dtb.stage2_mmu.stage2_tlb.inserts            0                       # Number of times an entry is inserted into the TLB
system.cpu.dtb.stage2_mmu.stage2_tlb.flushTlb            0                       # Number of times complete TLB was flushed
system.cpu.dtb.stage2_mmu.stage2_tlb.flushTlbMva            0                       # Number of times TLB was flushed by MVA
system.cpu.dtb.stage2_mmu.stage2_tlb.flushTlbMvaAsid            0                       # Number of times TLB was flushed by MVA & ASID
system.cpu.dtb.stage2_mmu.stage2_tlb.flushTlbAsid            0                       # Number of times TLB was flushed by ASID
system.cpu.dtb.stage2_mmu.stage2_tlb.flushedEntries            0                       # Number of entries that have been flushed from TLB
system.cpu.dtb.stage2_mmu.stage2_tlb.alignFaults            0                       # Number of TLB faults due to alignment restrictions
system.cpu.dtb.stage2_mmu.stage2_tlb.prefetchFaults            0                       # Number of TLB faults due to prefetch
system.cpu.dtb.stage2_mmu.stage2_tlb.domainFaults            0                       # Number of TLB faults due to domain restrictions
system.cpu.dtb.stage2_mmu.stage2_tlb.permsFaults            0                       # Number of TLB faults due to permissions restrictions
system.cpu.dtb.stage2_mmu.stage2_tlb.readAccesses            0                       # DTB read accesses
system.cpu.dtb.stage2_mmu.stage2_tlb.writeAccesses            0                       # DTB write accesses
system.cpu.dtb.stage2_mmu.stage2_tlb.instAccesses            0                       # ITB inst accesses
system.cpu.dtb.stage2_mmu.stage2_tlb.hits            0                       # Total TLB (inst and data) hits
system.cpu.dtb.stage2_mmu.stage2_tlb.misses            0                       # Total TLB (inst and data) misses
system.cpu.dtb.stage2_mmu.stage2_tlb.accesses            0                       # Total TLB (inst and data) accesses
system.cpu.dtb.stage2_mmu.stage2_tlb.walker.walks            0                       # Table walker walks requested
system.cpu.dtb.stage2_mmu.stage2_tlb.walker.requestOrigin_Requested::Data            0                       # Table walker requests started/completed, data/inst
system.cpu.dtb.stage2_mmu.stage2_tlb.walker.requestOrigin_Requested::Inst            0                       # Table walker requests started/completed, data/inst
system.cpu.dtb.stage2_mmu.stage2_tlb.walker.requestOrigin_Requested::total            0                       # Table walker requests started/completed, data/inst
system.cpu.dtb.stage2_mmu.stage2_tlb.walker.requestOrigin_Completed::Data            0                       # Table walker requests started/completed, data/inst
system.cpu.dtb.stage2_mmu.stage2_tlb.walker.requestOrigin_Completed::Inst            0                       # Table walker requests started/completed, data/inst
system.cpu.dtb.stage2_mmu.stage2_tlb.walker.requestOrigin_Completed::total            0                       # Table walker requests started/completed, data/inst
system.cpu.dtb.stage2_mmu.stage2_tlb.walker.requestOrigin::total            0                       # Table walker requests started/completed, data/inst
system.cpu.dtb.stage2_mmu.stage2_tlb.walker.power_state.pwrStateResidencyTicks::UNDEFINED     32743000                       # Cumulative time (in ticks) in various power states
system.cpu.dtb.walker.walks                         0                       # Table walker walks requested
system.cpu.dtb.walker.requestOrigin_Requested::Data            0                       # Table walker requests started/completed, data/inst
system.cpu.dtb.walker.requestOrigin_Requested::Inst            0                       # Table walker requests started/completed, data/inst
system.cpu.dtb.walker.requestOrigin_Requested::total            0                       # Table walker requests started/completed, data/inst
system.cpu.dtb.walker.requestOrigin_Completed::Data            0                       # Table walker requests started/completed, data/inst
system.cpu.dtb.walker.requestOrigin_Completed::Inst            0                       # Table walker requests started/completed, data/inst
system.cpu.dtb.walker.requestOrigin_Completed::total            0                       # Table walker requests started/completed, data/inst
system.cpu.dtb.walker.requestOrigin::total            0                       # Table walker requests started/completed, data/inst
system.cpu.dtb.walker.power_state.pwrStateResidencyTicks::UNDEFINED     32743000                       # Cumulative time (in ticks) in various power states
system.cpu.fetch2.intInstructions               10951                       # Number of integer instructions successfully decoded
system.cpu.fetch2.fpInstructions                    0                       # Number of floating point instructions successfully decoded
system.cpu.fetch2.vecInstructions                   0                       # Number of SIMD instructions successfully decoded
system.cpu.fetch2.loadInstructions               2861                       # Number of memory load instructions successfully decoded
system.cpu.fetch2.storeInstructions              1620                       # Number of memory store instructions successfully decoded
system.cpu.fetch2.amoInstructions                   0                       # Number of memory atomic instructions successfully decoded
system.cpu.icache.demand_hits::.cpu.inst         4205                       # number of demand (read+write) hits
system.cpu.icache.demand_hits::total             4205                       # number of demand (read+write) hits
system.cpu.icache.overall_hits::.cpu.inst         4205                       # number of overall hits
system.cpu.icache.overall_hits::total            4205                       # number of overall hits
system.cpu.icache.demand_misses::.cpu.inst          426                       # number of demand (read+write) misses
system.cpu.icache.demand_misses::total            426                       # number of demand (read+write) misses
system.cpu.icache.overall_misses::.cpu.inst          426                       # number of overall misses
system.cpu.icache.overall_misses::total           426                       # number of overall misses
system.cpu.icache.demand_miss_latency::.cpu.inst     20481500                       # number of demand (read+write) miss cycles
system.cpu.icache.demand_miss_latency::total     20481500                       # number of demand (read+write) miss cycles
system.cpu.icache.overall_miss_latency::.cpu.inst     20481500                       # number of overall miss cycles
system.cpu.icache.overall_miss_latency::total     20481500                       # number of overall miss cycles
system.cpu.icache.demand_accesses::.cpu.inst         4631                       # number of demand (read+write) accesses
system.cpu.icache.demand_accesses::total         4631                       # number of demand (read+write) accesses
system.cpu.icache.overall_accesses::.cpu.inst         4631                       # number of overall (read+write) accesses
system.cpu.icache.overall_accesses::total         4631                       # number of overall (read+write) accesses
system.cpu.icache.demand_miss_rate::.cpu.inst     0.091989                       # miss rate for demand accesses
system.cpu.icache.demand_miss_rate::total     0.091989                       # miss rate for demand accesses
system.cpu.icache.overall_miss_rate::.cpu.inst     0.091989                       # miss rate for overall accesses
system.cpu.icache.overall_miss_rate::total     0.091989                       # miss rate for overall accesses
system.cpu.icache.demand_avg_miss_latency::.cpu.inst 48078.638498                       # average overall miss latency
system.cpu.icache.demand_avg_miss_latency::total 48078.638498                       # average overall miss latency
system.cpu.icache.overall_avg_miss_latency::.cpu.inst 48078.638498                       # average overall miss latency
system.cpu.icache.overall_avg_miss_latency::total 48078.638498                       # average overall miss latency
system.cpu.icache.blocked_cycles::no_mshrs            0                       # number of cycles access was blocked
system.cpu.icache.blocked_cycles::no_targets            0                       # number of cycles access was blocked
system.cpu.icache.blocked::no_mshrs                 0                       # number of cycles access was blocked
system.cpu.icache.blocked::no_targets               0                       # number of cycles access was blocked
system.cpu.icache.avg_blocked_cycles::no_mshrs          nan                       # average number of cycles each access was blocked
system.cpu.icache.avg_blocked_cycles::no_targets          nan                       # average number of cycles each access was blocked
system.cpu.icache.writebacks::.writebacks          100                       # number of writebacks
system.cpu.icache.writebacks::total               100                       # number of writebacks
system.cpu.icache.demand_mshr_misses::.cpu.inst          426                       # number of demand (read+write) MSHR misses
system.cpu.icache.demand_mshr_misses::total          426                       # number of demand (read+write) MSHR misses
system.cpu.icache.overall_mshr_misses::.cpu.inst          426                       # number of overall MSHR misses
system.cpu.icache.overall_mshr_misses::total          426                       # number of overall MSHR misses
system.cpu.icache.demand_mshr_miss_latency::.cpu.inst     19939300                       # number of demand (read+write) MSHR miss cycles
system.cpu.icache.demand_mshr_miss_latency::total     19939300                       # number of demand (read+write) MSHR miss cycles
system.cpu.icache.overall_mshr_miss_latency::.cpu.inst     19939300                       # number of overall MSHR miss cycles
system.cpu.icache.overall_mshr_miss_latency::total     19939300                       # number of overall MSHR miss cycles
system.cpu.icache.demand_mshr_miss_rate::.cpu.inst     0.091989                       # mshr miss rate for demand accesses
system.cpu.icache.demand_mshr_miss_rate::total     0.091989                       # mshr miss rate for demand accesses
system.cpu.icache.overall_mshr_miss_rate::.cpu.inst     0.091989                       # mshr miss rate for overall accesses
system.cpu.icache.overall_mshr_miss_rate::total     0.091989                       # mshr miss rate for overall accesses
system.cpu.icache.demand_avg_mshr_miss_latency::.cpu.inst 46805.868545                       # average overall mshr miss latency
system.cpu.icache.demand_avg_mshr_miss_latency::total 46805.868545                       # average overall mshr miss latency
system.cpu.icache.overall_avg_mshr_miss_latency::.cpu.inst 46805.868545                       # average overall mshr miss latency
system.cpu.icache.overall_avg_mshr_miss_latency::total 46805.868545                       # average overall mshr miss latency
system.cpu.icache.replacements                    100                       # number of replacements
system.cpu.icache.ReadReq_hits::.cpu.inst         4205                       # number of ReadReq hits
system.cpu.icache.ReadReq_hits::total            4205                       # number of ReadReq hits
system.cpu.icache.ReadReq_misses::.cpu.inst          426                       # number of ReadReq misses
system.cpu.icache.ReadReq_misses::total           426                       # number of ReadReq misses
system.cpu.icache.ReadReq_miss_latency::.cpu.inst     20481500                       # number of ReadReq miss cycles
system.cpu.icache.ReadReq_miss_latency::total     20481500                       # number of ReadReq miss cycles
system.cpu.icache.ReadReq_accesses::.cpu.inst         4631                       # number of ReadReq accesses(hits+misses)
system.cpu.icache.ReadReq_accesses::total         4631                       # number of ReadReq accesses(hits+misses)
system.cpu.icache.ReadReq_miss_rate::.cpu.inst     0.091989                       # miss rate for ReadReq accesses
system.cpu.icache.ReadReq_miss_rate::total     0.091989                       # miss rate for ReadReq accesses
system.cpu.icache.ReadReq_avg_miss_latency::.cpu.inst 48078.638498                       # average ReadReq miss latency
system.cpu.icache.ReadReq_avg_miss_latency::total 48078.638498                       # average ReadReq miss latency
system.cpu.icache.ReadReq_mshr_misses::.cpu.inst          426                       # number of ReadReq MSHR misses
system.cpu.icache.ReadReq_mshr_misses::total          426                       # number of ReadReq MSHR misses
system.cpu.icache.ReadReq_mshr_miss_latency::.cpu.inst     19939300                       # number of ReadReq MSHR miss cycles
system.cpu.icache.ReadReq_mshr_miss_latency::total     19939300                       # number of ReadReq MSHR miss cycles
system.cpu.icache.ReadReq_mshr_miss_rate::.cpu.inst     0.091989                       # mshr miss rate for ReadReq accesses
system.cpu.icache.ReadReq_mshr_miss_rate::total     0.091989                       # mshr miss rate for ReadReq accesses
system.cpu.icache.ReadReq_avg_mshr_miss_latency::.cpu.inst 46805.868545                       # average ReadReq mshr miss latency
system.cpu.icache.ReadReq_avg_mshr_miss_latency::total 46805.868545                       # average ReadReq mshr miss latency
system.cpu.icache.power_state.pwrStateResidencyTicks::UNDEFINED     32743000                       # Cumulative time (in ticks) in various power states
system.cpu.icache.tags.tagsinuse           184.969174                       # Cycle average of tags in use
system.cpu.icache.tags.total_refs                4631                       # Total number of references to valid blocks.
system.cpu.icache.tags.sampled_refs               426                       # Sample count of references to valid blocks.
system.cpu.icache.tags.avg_refs             10.870892                       # Average number of references to valid blocks.
system.cpu.icache.tags.warmup_cycle             69120                       # Cycle when the warmup percentage was hit.
system.cpu.icache.tags.occ_blocks::.cpu.inst   184.969174                       # Average occupied blocks per requestor
system.cpu.icache.tags.occ_percent::.cpu.inst     0.361268                       # Average percentage of cache occupancy
system.cpu.icache.tags.occ_percent::total     0.361268                       # Average percentage of cache occupancy
system.cpu.icache.tags.occ_task_id_blocks::1024          326                       # Occupied blocks per task id
system.cpu.icache.tags.age_task_id_blocks_1024::0          114                       # Occupied blocks per task id
system.cpu.icache.tags.age_task_id_blocks_1024::1          212                       # Occupied blocks per task id
system.cpu.icache.tags.occ_task_id_percent::1024     0.636719                       # Percentage of cache occupancy per task id
system.cpu.icache.tags.tag_accesses              9688                       # Number of tag accesses
system.cpu.icache.tags.data_accesses             9688                       # Number of data accesses
system.cpu.icache.tags.power_state.pwrStateResidencyTicks::UNDEFINED     32743000                       # Cumulative time (in ticks) in various power states
system.cpu.itb.instHits                             0                       # ITB inst hits
system.cpu.itb.instMisses                           0                       # ITB inst misses
system.cpu.itb.readHits                             0                       # DTB read hits
system.cpu.itb.readMisses                           0                       # DTB read misses
system.cpu.itb.writeHits                            0                       # DTB write hits
system.cpu.itb.writeMisses                          0                       # DTB write misses
system.cpu.itb.inserts                              0                       # Number of times an entry is inserted into the TLB
system.cpu.itb.flushTlb                             0                       # Number of times complete TLB was flushed
system.cpu.itb.flushTlbMva                          0                       # Number of times TLB was flushed by MVA
system.cpu.itb.flushTlbMvaAsid                      0                       # Number of times TLB was flushed by MVA & ASID
system.cpu.itb.flushTlbAsid                         0                       # Number of times TLB was flushed by ASID
system.cpu.itb.flushedEntries                       0                       # Number of entries that have been flushed from TLB
system.cpu.itb.alignFaults                          0                       # Number of TLB faults due to alignment restrictions
system.cpu.itb.prefetchFaults                       0                       # Number of TLB faults due to prefetch
system.cpu.itb.domainFaults                         0                       # Number of TLB faults due to domain restrictions
system.cpu.itb.permsFaults                          0                       # Number of TLB faults due to permissions restrictions
system.cpu.itb.readAccesses                         0                       # DTB read accesses
system.cpu.itb.writeAccesses                        0                       # DTB write accesses
system.cpu.itb.instAccesses                         0                       # ITB inst accesses
system.cpu.itb.hits                                 0                       # Total TLB (inst and data) hits
system.cpu.itb.misses                               0                       # Total TLB (inst and data) misses
system.cpu.itb.accesses                             0                       # Total TLB (inst and data) accesses
system.cpu.itb.stage2_mmu.stage2_tlb.instHits            0                       # ITB inst hits
system.cpu.itb.stage2_mmu.stage2_tlb.instMisses            0                       # ITB inst misses
system.cpu.itb.stage2_mmu.stage2_tlb.readHits            0                       # DTB read hits
system.cpu.itb.stage2_mmu.stage2_tlb.readMisses            0                       # DTB read misses
system.cpu.itb.stage2_mmu.stage2_tlb.writeHits            0                       # DTB write hits
system.cpu.itb.stage2_mmu.stage2_tlb.writeMisses            0                       # DTB write misses
system.cpu.itb.stage2_mmu.stage2_tlb.inserts            0                       # Number of times an entry is inserted into the TLB
system.cpu.itb.stage2_mmu.stage2_tlb.flushTlb            0                       # Number of times complete TLB was flushed
system.cpu.itb.stage2_mmu.stage2_tlb.flushTlbMva            0                       # Number of times TLB was flushed by MVA
system.cpu.itb.stage2_mmu.stage2_tlb.flushTlbMvaAsid            0                       # Number of times TLB was flushed by MVA & ASID
system.cpu.itb.stage2_mmu.stage2_tlb.flushTlbAsid            0                       # Number of times TLB was flushed by ASID
system.cpu.itb.stage2_mmu.stage2_tlb.flushedEntries            0                       # Number of entries that have been flushed from TLB
system.cpu.itb.stage2_mmu.stage2_tlb.alignFaults            0                       # Number of TLB faults due to alignment restrictions
system.cpu.itb.stage2_mmu.stage2_tlb.prefetchFaults            0                       # Number of TLB faults due to prefetch
system.cpu.itb.stage2_mmu.stage2_tlb.domainFaults            0                       # Number of TLB faults due to domain restrictions
system.cpu.itb.stage2_mmu.stage2_tlb.permsFaults            0                       # Number of TLB faults due to permissions restrictions
system.cpu.itb.stage2_mmu.stage2_tlb.readAccesses            0                       # DTB read accesses
system.cpu.itb.stage2_mmu.stage2_tlb.writeAccesses            0                       # DTB write accesses
system.cpu.itb.stage2_mmu.stage2_tlb.instAccesses            0                       # ITB inst accesses
system.cpu.itb.stage2_mmu.stage2_tlb.hits            0                       # Total TLB (inst and data) hits
system.cpu.itb.stage2_mmu.stage2_tlb.misses            0                       # Total TLB (inst and data) misses
system.cpu.itb.stage2_mmu.stage2_tlb.accesses            0                       # Total TLB (inst and data) accesses
system.cpu.itb.stage2_mmu.stage2_tlb.walker.walks            0                       # Table walker walks requested
system.cpu.itb.stage2_mmu.stage2_tlb.walker.requestOrigin_Requested::Data            0                       # Table walker requests started/completed, data/inst
system.cpu.itb.stage2_mmu.stage2_tlb.walker.requestOrigin_Requested::Inst            0                       # Table walker requests started/completed, data/inst
system.cpu.itb.stage2_mmu.stage2_tlb.walker.requestOrigin_Requested::total            0                       # Table walker requests started/completed, data/inst
system.cpu.itb.stage2_mmu.stage2_tlb.walker.requestOrigin_Completed::Data            0                       # Table walker requests started/completed, data/inst
system.cpu.itb.stage2_mmu.stage2_tlb.walker.requestOrigin_Completed::Inst            0                       # Table walker requests started/completed, data/inst
system.cpu.itb.stage2_mmu.stage2_tlb.walker.requestOrigin_Completed::total            0                       # Table walker requests started/completed, data/inst
system.cpu.itb.stage2_mmu.stage2_tlb.walker.requestOrigin::total            0                       # Table walker requests started/completed, data/inst
system.cpu.itb.stage2_mmu.stage2_tlb.walker.power_state.pwrStateResidencyTicks::UNDEFINED     32743000                       # Cumulative time (in ticks) in various power states
system.cpu.itb.walker.walks                         0                       # Table walker walks requested
system.cpu.itb.walker.requestOrigin_Requested::Data            0                       # Table walker requests started/completed, data/inst
system.cpu.itb.walker.requestOrigin_Requested::Inst            0                       # Table walker requests started/completed, data/inst
system.cpu.itb.walker.requestOrigin_Requested::total            0                       # Table walker requests started/completed, data/inst
system.cpu.itb.walker.requestOrigin_Completed::Data            0                       # Table walker requests started/completed, data/inst
system.cpu.itb.walker.requestOrigin_Completed::Inst            0                       # Table walker requests started/completed, data/inst
system.cpu.itb.walker.requestOrigin_Completed::total            0                       # Table walker requests started/completed, data/inst
system.cpu.itb.walker.requestOrigin::total            0                       # Table walker requests started/completed, data/inst
system.cpu.itb.walker.power_state.pwrStateResidencyTicks::UNDEFINED     32743000                       # Cumulative time (in ticks) in various power states
system.cpu.power_state.pwrStateResidencyTicks::ON     32743000                       # Cumulative time (in ticks) in various power states
system.cpu.thread_0.numInsts                    11347                       # Number of Instructions committed
system.cpu.thread_0.numOps                      12994                       # Number of Ops committed
system.cpu.thread_0.numMemRefs                      0                       # Number of Memory References
system.cpu_clk_domain.clock                       500                       # Clock period in ticks
system.cpu_voltage_domain.voltage                   1                       # Voltage in Volts
system.mem_ctrls.avgPriority_.writebacks::samples        96.00                       # Average QoS priority value for accepted requests
system.mem_ctrls.avgPriority_.cpu.inst::samples       406.00                       # Average QoS priority value for accepted requests
system.mem_ctrls.avgPriority_.cpu.data::samples       177.00                       # Average QoS priority value for accepted requests
system.mem_ctrls.priorityMinLatency      0.000000018750                       # per QoS priority minimum request to response latency (s)
system.mem_ctrls.priorityMaxLatency      0.000019482750                       # per QoS priority maximum request to response latency (s)
system.mem_ctrls.numReadWriteTurnArounds            4                       # Number of turnarounds from READ to WRITE
system.mem_ctrls.numWriteReadTurnArounds            4                       # Number of turnarounds from WRITE to READ
system.mem_ctrls.numStayReadState                1254                       # Number of times bus staying in READ state
system.mem_ctrls.numStayWriteState                 60                       # Number of times bus staying in WRITE state
system.mem_ctrls.readReqs                         603                       # Number of read requests accepted
system.mem_ctrls.writeReqs                         96                       # Number of write requests accepted
system.mem_ctrls.readBursts                       603                       # Number of controller read bursts, including those serviced by the write queue
system.mem_ctrls.writeBursts                       96                       # Number of controller write bursts, including those merged in the write queue
system.mem_ctrls.servicedByWrQ                     20                       # Number of controller read bursts serviced by the write queue
system.mem_ctrls.mergedWrBursts                     0                       # Number of controller write bursts merged with an existing one
system.mem_ctrls.neitherReadNorWriteReqs            0                       # Number of requests that are neither read nor write
system.mem_ctrls.avgRdQLen                       1.16                       # Average read queue length when enqueuing
system.mem_ctrls.avgWrQLen                      13.14                       # Average write queue length when enqueuing
system.mem_ctrls.numRdRetry                         0                       # Number of times read queue was full causing retry
system.mem_ctrls.numWrRetry                         0                       # Number of times write queue was full causing retry
system.mem_ctrls.readPktSize::0                     0                       # Read request sizes (log2)
system.mem_ctrls.readPktSize::1                     0                       # Read request sizes (log2)
system.mem_ctrls.readPktSize::2                     0                       # Read request sizes (log2)
system.mem_ctrls.readPktSize::3                     0                       # Read request sizes (log2)
system.mem_ctrls.readPktSize::4                     0                       # Read request sizes (log2)
system.mem_ctrls.readPktSize::5                     0                       # Read request sizes (log2)
system.mem_ctrls.readPktSize::6                   603                       # Read request sizes (log2)
system.mem_ctrls.writePktSize::0                    0                       # Write request sizes (log2)
system.mem_ctrls.writePktSize::1                    0                       # Write request sizes (log2)
system.mem_ctrls.writePktSize::2                    0                       # Write request sizes (log2)
system.mem_ctrls.writePktSize::3                    0                       # Write request sizes (log2)
system.mem_ctrls.writePktSize::4                    0                       # Write request sizes (log2)
system.mem_ctrls.writePktSize::5                    0                       # Write request sizes (log2)
system.mem_ctrls.writePktSize::6                   96                       # Write request sizes (log2)
system.mem_ctrls.rdQLenPdf::0                     489                       # What read queue length does an incoming req see
system.mem_ctrls.rdQLenPdf::1                      88                       # What read queue length does an incoming req see
system.mem_ctrls.rdQLenPdf::2                       6                       # What read queue length does an incoming req see
system.mem_ctrls.rdQLenPdf::3                       0                       # What read queue length does an incoming req see
system.mem_ctrls.rdQLenPdf::4                       0                       # What read queue length does an incoming req see
system.mem_ctrls.rdQLenPdf::5                       0                       # What read queue length does an incoming req see
system.mem_ctrls.rdQLenPdf::6                       0                       # What read queue length does an incoming req see
system.mem_ctrls.rdQLenPdf::7                       0                       # What read queue length does an incoming req see
system.mem_ctrls.rdQLenPdf::8                       0                       # What read queue length does an incoming req see
system.mem_ctrls.rdQLenPdf::9                       0                       # What read queue length does an incoming req see
system.mem_ctrls.rdQLenPdf::10                      0                       # What read queue length does an incoming req see
system.mem_ctrls.rdQLenPdf::11                      0                       # What read queue length does an incoming req see
system.mem_ctrls.rdQLenPdf::12                      0                       # What read queue length does an incoming req see
system.mem_ctrls.rdQLenPdf::13                      0                       # What read queue length does an incoming req see
system.mem_ctrls.rdQLenPdf::14                      0                       # What read queue length does an incoming req see
system.mem_ctrls.rdQLenPdf::15                      0                       # What read queue length does an incoming req see
system.mem_ctrls.rdQLenPdf::16                      0                       # What read queue length does an incoming req see
system.mem_ctrls.rdQLenPdf::17                      0                       # What read queue length does an incoming req see
system.mem_ctrls.rdQLenPdf::18                      0                       # What read queue length does an incoming req see
system.mem_ctrls.rdQLenPdf::19                      0                       # What read queue length does an incoming req see
system.mem_ctrls.rdQLenPdf::20                      0                       # What read queue length does an incoming req see
system.mem_ctrls.rdQLenPdf::21                      0                       # What read queue length does an incoming req see
system.mem_ctrls.rdQLenPdf::22                      0                       # What read queue length does an incoming req see
system.mem_ctrls.rdQLenPdf::23                      0                       # What read queue length does an incoming req see
system.mem_ctrls.rdQLenPdf::24                      0                       # What read queue length does an incoming req see
system.mem_ctrls.rdQLenPdf::25                      0                       # What read queue length does an incoming req see
system.mem_ctrls.rdQLenPdf::26                      0                       # What read queue length does an incoming req see
system.mem_ctrls.rdQLenPdf::27                      0                       # What read queue length does an incoming req see
system.mem_ctrls.rdQLenPdf::28                      0                       # What read queue length does an incoming req see
system.mem_ctrls.rdQLenPdf::29                      0                       # What read queue length does an incoming req see
system.mem_ctrls.rdQLenPdf::30                      0                       # What read queue length does an incoming req see
system.mem_ctrls.rdQLenPdf::31                      0                       # What read queue length does an incoming req see
system.mem_ctrls.wrQLenPdf::0                       1                       # What write queue length does an incoming req see
system.mem_ctrls.wrQLenPdf::1                       1                       # What write queue length does an incoming req see
system.mem_ctrls.wrQLenPdf::2                       1                       # What write queue length does an incoming req see
system.mem_ctrls.wrQLenPdf::3                       1                       # What write queue length does an incoming req see
system.mem_ctrls.wrQLenPdf::4                       1                       # What write queue length does an incoming req see
system.mem_ctrls.wrQLenPdf::5                       1                       # What write queue length does an incoming req see
system.mem_ctrls.wrQLenPdf::6                       1                       # What write queue length does an incoming req see
system.mem_ctrls.wrQLenPdf::7                       1                       # What write queue length does an incoming req see
system.mem_ctrls.wrQLenPdf::8                       1                       # What write queue length does an incoming req see
system.mem_ctrls.wrQLenPdf::9                       1                       # What write queue length does an incoming req see
system.mem_ctrls.wrQLenPdf::10                      1                       # What write queue length does an incoming req see
system.mem_ctrls.wrQLenPdf::11                      1                       # What write queue length does an incoming req see
system.mem_ctrls.wrQLenPdf::12                      1                       # What write queue length does an incoming req see
system.mem_ctrls.wrQLenPdf::13                      1                       # What write queue length does an incoming req see
system.mem_ctrls.wrQLenPdf::14                      1                       # What write queue length does an incoming req see
system.mem_ctrls.wrQLenPdf::15                      1                       # What write queue length does an incoming req see
system.mem_ctrls.wrQLenPdf::16                      1                       # What write queue length does an incoming req see
system.mem_ctrls.wrQLenPdf::17                      4                       # What write queue length does an incoming req see
system.mem_ctrls.wrQLenPdf::18                      5                       # What write queue length does an incoming req see
system.mem_ctrls.wrQLenPdf::19                      5                       # What write queue length does an incoming req see
system.mem_ctrls.wrQLenPdf::20                      5                       # What write queue length does an incoming req see
system.mem_ctrls.wrQLenPdf::21                      5                       # What write queue length does an incoming req see
system.mem_ctrls.wrQLenPdf::22                      5                       # What write queue length does an incoming req see
system.mem_ctrls.wrQLenPdf::23                      6                       # What write queue length does an incoming req see
system.mem_ctrls.wrQLenPdf::24                      5                       # What write queue length does an incoming req see
system.mem_ctrls.wrQLenPdf::25                      5                       # What write queue length does an incoming req see
system.mem_ctrls.wrQLenPdf::26                      5                       # What write queue length does an incoming req see
system.mem_ctrls.wrQLenPdf::27                      5                       # What write queue length does an incoming req see
system.mem_ctrls.wrQLenPdf::28                      5                       # What write queue length does an incoming req see
system.mem_ctrls.wrQLenPdf::29                      5                       # What write queue length does an incoming req see
system.mem_ctrls.wrQLenPdf::30                      5                       # What write queue length does an incoming req see
system.mem_ctrls.wrQLenPdf::31                      5                       # What write queue length does an incoming req see
system.mem_ctrls.wrQLenPdf::32                      4                       # What write queue length does an incoming req see
system.mem_ctrls.wrQLenPdf::33                      0                       # What write queue length does an incoming req see
system.mem_ctrls.wrQLenPdf::34                      0                       # What write queue length does an incoming req see
system.mem_ctrls.wrQLenPdf::35                      0                       # What write queue length does an incoming req see
system.mem_ctrls.wrQLenPdf::36                      0                       # What write queue length does an incoming req see
system.mem_ctrls.wrQLenPdf::37                      0                       # What write queue length does an incoming req see
system.mem_ctrls.wrQLenPdf::38                      0                       # What write queue length does an incoming req see
system.mem_ctrls.wrQLenPdf::39                      0                       # What write queue length does an incoming req see
system.mem_ctrls.wrQLenPdf::40                      0                       # What write queue length does an incoming req see
system.mem_ctrls.wrQLenPdf::41                      0                       # What write queue length does an incoming req see
system.mem_ctrls.wrQLenPdf::42                      0                       # What write queue length does an incoming req see
system.mem_ctrls.wrQLenPdf::43                      0                       # What write queue length does an incoming req see
system.mem_ctrls.wrQLenPdf::44                      0                       # What write queue length does an incoming req see
system.mem_ctrls.wrQLenPdf::45                      0                       # What write queue length does an incoming req see
system.mem_ctrls.wrQLenPdf::46                      0                       # What write queue length does an incoming req see
system.mem_ctrls.wrQLenPdf::47                      0                       # What write queue length does an incoming req see
system.mem_ctrls.wrQLenPdf::48                      0                       # What write queue length does an incoming req see
system.mem_ctrls.wrQLenPdf::49                      0                       # What write queue length does an incoming req see
system.mem_ctrls.wrQLenPdf::50                      0                       # What write queue length does an incoming req see
system.mem_ctrls.wrQLenPdf::51                      0                       # What write queue length does an incoming req see
system.mem_ctrls.wrQLenPdf::52                      0                       # What write queue length does an incoming req see
system.mem_ctrls.wrQLenPdf::53                      0                       # What write queue length does an incoming req see
system.mem_ctrls.wrQLenPdf::54                      0                       # What write queue length does an incoming req see
system.mem_ctrls.wrQLenPdf::55                      0                       # What write queue length does an incoming req see
system.mem_ctrls.wrQLenPdf::56                      0                       # What write queue length does an incoming req see
system.mem_ctrls.wrQLenPdf::57                      0                       # What write queue length does an incoming req see
system.mem_ctrls.wrQLenPdf::58                      0                       # What write queue length does an incoming req see
system.mem_ctrls.wrQLenPdf::59                      0                       # What write queue length does an incoming req see
system.mem_ctrls.wrQLenPdf::60                      0                       # What write queue length does an incoming req see
system.mem_ctrls.wrQLenPdf::61                      0                       # What write queue length does an incoming req see
system.mem_ctrls.wrQLenPdf::62                      0                       # What write queue length does an incoming req see
system.mem_ctrls.wrQLenPdf::63                      0                       # What write queue length does an incoming req see
system.mem_ctrls.rdPerTurnAround::samples            4                       # Reads before turning the bus around for writes
system.mem_ctrls.rdPerTurnAround::mean     130.250000                       # Reads before turning the bus around for writes
system.mem_ctrls.rdPerTurnAround::gmean     79.969013                       # Reads before turning the bus around for writes
system.mem_ctrls.rdPerTurnAround::stdev    165.171376                       # Reads before turning the bus around for writes
system.mem_ctrls.rdPerTurnAround::32-47             1     25.00%     25.00% # Reads before turning the bus around for writes
system.mem_ctrls.rdPerTurnAround::48-63             2     50.00%     75.00% # Reads before turning the bus around for writes
system.mem_ctrls.rdPerTurnAround::368-383            1     25.00%    100.00% # Reads before turning the bus around for writes
system.mem_ctrls.rdPerTurnAround::total             4                       # Reads before turning the bus around for writes
system.mem_ctrls.wrPerTurnAround::samples            4                       # Writes before turning the bus around for reads
system.mem_ctrls.wrPerTurnAround::mean             16                       # Writes before turning the bus around for reads
system.mem_ctrls.wrPerTurnAround::gmean     16.000000                       # Writes before turning the bus around for reads
system.mem_ctrls.wrPerTurnAround::16                4    100.00%    100.00% # Writes before turning the bus around for reads
system.mem_ctrls.wrPerTurnAround::total             4                       # Writes before turning the bus around for reads
system.mem_ctrls.bytesReadWrQ                    1280                       # Total number of bytes read from write queue
system.mem_ctrls.bytesReadSys                   38592                       # Total read bytes from the system interface side
system.mem_ctrls.bytesWrittenSys                 6144                       # Total written bytes from the system interface side
system.mem_ctrls.avgRdBWSys                   1178.63                       # Average system read bandwidth in MiByte/s
system.mem_ctrls.avgWrBWSys                    187.64                       # Average system write bandwidth in MiByte/s
system.mem_ctrls.totGap                      32734500                       # Total gap between requests
system.mem_ctrls.avgGap                      46830.47                       # Average gap between requests
system.mem_ctrls.requestorReadBytes::.cpu.inst        25984                       # Per-requestor bytes read from memory
system.mem_ctrls.requestorReadBytes::.cpu.data        11328                       # Per-requestor bytes read from memory
system.mem_ctrls.requestorWriteBytes::.writebacks         4096                       # Per-requestor bytes write to memory
system.mem_ctrls.requestorReadRate::.cpu.inst 793574199.065449118614                       # Per-requestor bytes read from memory rate (Bytes/sec)
system.mem_ctrls.requestorReadRate::.cpu.data 345967076.932474076748                       # Per-requestor bytes read from memory rate (Bytes/sec)
system.mem_ctrls.requestorWriteRate::.writebacks 125095440.246770292521                       # Per-requestor bytes write to memory rate (Bytes/sec)
system.mem_ctrls.requestorReadAccesses::.cpu.inst          426                       # Per-requestor read serviced memory accesses
system.mem_ctrls.requestorReadAccesses::.cpu.data          177                       # Per-requestor read serviced memory accesses
system.mem_ctrls.requestorWriteAccesses::.writebacks           96                       # Per-requestor write serviced memory accesses
system.mem_ctrls.requestorReadTotalLat::.cpu.inst      9912500                       # Per-requestor read total memory access latency
system.mem_ctrls.requestorReadTotalLat::.cpu.data      4926540                       # Per-requestor read total memory access latency
system.mem_ctrls.requestorWriteTotalLat::.writebacks    298861500                       # Per-requestor write total memory access latency
system.mem_ctrls.requestorReadAvgLat::.cpu.inst     23268.78                       # Per-requestor read average memory access latency
system.mem_ctrls.requestorReadAvgLat::.cpu.data     27833.56                       # Per-requestor read average memory access latency
system.mem_ctrls.requestorWriteAvgLat::.writebacks   3113140.62                       # Per-requestor write average memory access latency
system.mem_ctrls.dram.bytes_read::.cpu.inst        27264                       # Number of bytes read from this memory
system.mem_ctrls.dram.bytes_read::.cpu.data        11328                       # Number of bytes read from this memory
system.mem_ctrls.dram.bytes_read::total         38592                       # Number of bytes read from this memory
system.mem_ctrls.dram.bytes_inst_read::.cpu.inst        27264                       # Number of instructions bytes read from this memory
system.mem_ctrls.dram.bytes_inst_read::total        27264                       # Number of instructions bytes read from this memory
system.mem_ctrls.dram.num_reads::.cpu.inst          426                       # Number of read requests responded to by this memory
system.mem_ctrls.dram.num_reads::.cpu.data          177                       # Number of read requests responded to by this memory
system.mem_ctrls.dram.num_reads::total            603                       # Number of read requests responded to by this memory
system.mem_ctrls.dram.bw_read::.cpu.inst    832666524                       # Total read bandwidth from this memory (bytes/s)
system.mem_ctrls.dram.bw_read::.cpu.data    345967077                       # Total read bandwidth from this memory (bytes/s)
system.mem_ctrls.dram.bw_read::total       1178633601                       # Total read bandwidth from this memory (bytes/s)
system.mem_ctrls.dram.bw_inst_read::.cpu.inst    832666524                       # Instruction read bandwidth from this memory (bytes/s)
system.mem_ctrls.dram.bw_inst_read::total    832666524                       # Instruction read bandwidth from this memory (bytes/s)
system.mem_ctrls.dram.bw_total::.cpu.inst    832666524                       # Total bandwidth to/from this memory (bytes/s)
system.mem_ctrls.dram.bw_total::.cpu.data    345967077                       # Total bandwidth to/from this memory (bytes/s)
system.mem_ctrls.dram.bw_total::total      1178633601                       # Total bandwidth to/from this memory (bytes/s)
system.mem_ctrls.dram.readBursts                  583                       # Number of DRAM read bursts
system.mem_ctrls.dram.writeBursts                  64                       # Number of DRAM write bursts
system.mem_ctrls.dram.perBankRdBursts::0           60                       # Per bank write bursts
system.mem_ctrls.dram.perBankRdBursts::1            2                       # Per bank write bursts
system.mem_ctrls.dram.perBankRdBursts::2           24                       # Per bank write bursts
system.mem_ctrls.dram.perBankRdBursts::3           47                       # Per bank write bursts
system.mem_ctrls.dram.perBankRdBursts::4           19                       # Per bank write bursts
system.mem_ctrls.dram.perBankRdBursts::5           35                       # Per bank write bursts
system.mem_ctrls.dram.perBankRdBursts::6           48                       # Per bank write bursts
system.mem_ctrls.dram.perBankRdBursts::7           47                       # Per bank write bursts
system.mem_ctrls.dram.perBankRdBursts::8           60                       # Per bank write bursts
system.mem_ctrls.dram.perBankRdBursts::9           82                       # Per bank write bursts
system.mem_ctrls.dram.perBankRdBursts::10           52                       # Per bank write bursts
system.mem_ctrls.dram.perBankRdBursts::11           77                       # Per bank write bursts
system.mem_ctrls.dram.perBankRdBursts::12           15                       # Per bank write bursts
system.mem_ctrls.dram.perBankRdBursts::13            8                       # Per bank write bursts
system.mem_ctrls.dram.perBankRdBursts::14            7                       # Per bank write bursts
system.mem_ctrls.dram.perBankRdBursts::15            0                       # Per bank write bursts
system.mem_ctrls.dram.perBankWrBursts::0           14                       # Per bank write bursts
system.mem_ctrls.dram.perBankWrBursts::1            1                       # Per bank write bursts
system.mem_ctrls.dram.perBankWrBursts::2            9                       # Per bank write bursts
system.mem_ctrls.dram.perBankWrBursts::3            0                       # Per bank write bursts
system.mem_ctrls.dram.perBankWrBursts::4            0                       # Per bank write bursts
system.mem_ctrls.dram.perBankWrBursts::5            0                       # Per bank write bursts
system.mem_ctrls.dram.perBankWrBursts::6            6                       # Per bank write bursts
system.mem_ctrls.dram.perBankWrBursts::7            2                       # Per bank write bursts
system.mem_ctrls.dram.perBankWrBursts::8           21                       # Per bank write bursts
system.mem_ctrls.dram.perBankWrBursts::9            3                       # Per bank write bursts
system.mem_ctrls.dram.perBankWrBursts::10            0                       # Per bank write bursts
system.mem_ctrls.dram.perBankWrBursts::11            8                       # Per bank write bursts
system.mem_ctrls.dram.perBankWrBursts::12            0                       # Per bank write bursts
system.mem_ctrls.dram.perBankWrBursts::13            0                       # Per bank write bursts
system.mem_ctrls.dram.perBankWrBursts::14            0                       # Per bank write bursts
system.mem_ctrls.dram.perBankWrBursts::15            0                       # Per bank write bursts
system.mem_ctrls.dram.totQLat                 3907790                       # Total ticks spent queuing
system.mem_ctrls.dram.totBusLat               2915000                       # Total ticks spent in databus transfers
system.mem_ctrls.dram.totMemAccLat           14839040                       # Total ticks spent from burst creation until serviced by the DRAM
system.mem_ctrls.dram.avgQLat                 6702.90                       # Average queueing delay per DRAM burst
system.mem_ctrls.dram.avgBusLat               5000.00                       # Average bus latency per DRAM burst
system.mem_ctrls.dram.avgMemAccLat           25452.90                       # Average memory access latency per DRAM burst
system.mem_ctrls.dram.readRowHits                 474                       # Number of row buffer hits during reads
system.mem_ctrls.dram.writeRowHits                 55                       # Number of row buffer hits during writes
system.mem_ctrls.dram.readRowHitRate            81.30                       # Row buffer hit rate for reads
system.mem_ctrls.dram.writeRowHitRate           85.94                       # Row buffer hit rate for writes
system.mem_ctrls.dram.bytesPerActivate::samples          114                       # Bytes accessed per row activation
system.mem_ctrls.dram.bytesPerActivate::mean   350.315789                       # Bytes accessed per row activation
system.mem_ctrls.dram.bytesPerActivate::gmean   229.635516                       # Bytes accessed per row activation
system.mem_ctrls.dram.bytesPerActivate::stdev   326.471680                       # Bytes accessed per row activation
system.mem_ctrls.dram.bytesPerActivate::0-127           25     21.93%     21.93% # Bytes accessed per row activation
system.mem_ctrls.dram.bytesPerActivate::128-255           31     27.19%     49.12% # Bytes accessed per row activation
system.mem_ctrls.dram.bytesPerActivate::256-383           22     19.30%     68.42% # Bytes accessed per row activation
system.mem_ctrls.dram.bytesPerActivate::384-511            9      7.89%     76.32% # Bytes accessed per row activation
system.mem_ctrls.dram.bytesPerActivate::512-639            5      4.39%     80.70% # Bytes accessed per row activation
system.mem_ctrls.dram.bytesPerActivate::640-767            3      2.63%     83.33% # Bytes accessed per row activation
system.mem_ctrls.dram.bytesPerActivate::768-895            1      0.88%     84.21% # Bytes accessed per row activation
system.mem_ctrls.dram.bytesPerActivate::896-1023            3      2.63%     86.84% # Bytes accessed per row activation
system.mem_ctrls.dram.bytesPerActivate::1024-1151           15     13.16%    100.00% # Bytes accessed per row activation
system.mem_ctrls.dram.bytesPerActivate::total          114                       # Bytes accessed per row activation
system.mem_ctrls.dram.bytesRead                 37312                       # Total number of bytes read from DRAM
system.mem_ctrls.dram.bytesWritten               4096                       # Total number of bytes written to DRAM
system.mem_ctrls.dram.avgRdBW             1139.541276                       # Average DRAM read bandwidth in MiBytes/s
system.mem_ctrls.dram.avgWrBW              125.095440                       # Average DRAM write bandwidth in MiBytes/s
system.mem_ctrls.dram.peakBW                 12800.00                       # Theoretical peak bandwidth in MiByte/s
system.mem_ctrls.dram.busUtil                    9.88                       # Data bus utilization in percentage
system.mem_ctrls.dram.busUtilRead                8.90                       # Data bus utilization in percentage for reads
system.mem_ctrls.dram.busUtilWrite               0.98                       # Data bus utilization in percentage for writes
system.mem_ctrls.dram.pageHitRate               81.76                       # Row buffer hit rate, read and write combined
system.mem_ctrls.dram.power_state.pwrStateResidencyTicks::UNDEFINED     32743000                       # Cumulative time (in ticks) in various power states
system.mem_ctrls.dram.rank0.actEnergy          342720                       # Energy for activate commands per rank (pJ)
system.mem_ctrls.dram.rank0.preEnergy          174570                       # Energy for precharge commands per rank (pJ)
system.mem_ctrls.dram.rank0.readEnergy        2013480                       # Energy for read commands per rank (pJ)
system.mem_ctrls.dram.rank0.writeEnergy        167040                       # Energy for write commands per rank (pJ)
system.mem_ctrls.dram.rank0.refreshEnergy 2458560.000000                       # Energy for refresh commands per rank (pJ)
system.mem_ctrls.dram.rank0.actBackEnergy     14312130                       # Energy for active background per rank (pJ)
system.mem_ctrls.dram.rank0.preBackEnergy       521280                       # Energy for precharge background per rank (pJ)
system.mem_ctrls.dram.rank0.actPowerDownEnergy            0                       # Energy for active power-down per rank (pJ)
system.mem_ctrls.dram.rank0.prePowerDownEnergy            0                       # Energy for precharge power-down per rank (pJ)
system.mem_ctrls.dram.rank0.selfRefreshEnergy            0                       # Energy for self refresh per rank (pJ)
system.mem_ctrls.dram.rank0.totalEnergy      19989780                       # Total energy per rank (pJ)
system.mem_ctrls.dram.rank0.averagePower   610.505452                       # Core power per rank (mW)
system.mem_ctrls.dram.rank0.totalIdleTime            0                       # Total Idle time Per DRAM Rank
system.mem_ctrls.dram.rank0.pwrStateTime::IDLE      1218750                       # Time in different power states
system.mem_ctrls.dram.rank0.pwrStateTime::REF      1040000                       # Time in different power states
system.mem_ctrls.dram.rank0.pwrStateTime::SREF            0                       # Time in different power states
system.mem_ctrls.dram.rank0.pwrStateTime::PRE_PDN            0                       # Time in different power states
system.mem_ctrls.dram.rank0.pwrStateTime::ACT     30484250                       # Time in different power states
system.mem_ctrls.dram.rank0.pwrStateTime::ACT_PDN            0                       # Time in different power states
system.mem_ctrls.dram.rank1.actEnergy          499800                       # Energy for activate commands per rank (pJ)
system.mem_ctrls.dram.rank1.preEnergy          258060                       # Energy for precharge commands per rank (pJ)
system.mem_ctrls.dram.rank1.readEnergy        2149140                       # Energy for read commands per rank (pJ)
system.mem_ctrls.dram.rank1.writeEnergy        167040                       # Energy for write commands per rank (pJ)
system.mem_ctrls.dram.rank1.refreshEnergy 2458560.000000                       # Energy for refresh commands per rank (pJ)
system.mem_ctrls.dram.rank1.actBackEnergy     14521320                       # Energy for active background per rank (pJ)
system.mem_ctrls.dram.rank1.preBackEnergy       345120                       # Energy for precharge background per rank (pJ)
system.mem_ctrls.dram.rank1.actPowerDownEnergy            0                       # Energy for active power-down per rank (pJ)
system.mem_ctrls.dram.rank1.prePowerDownEnergy            0                       # Energy for precharge power-down per rank (pJ)
system.mem_ctrls.dram.rank1.selfRefreshEnergy            0                       # Energy for self refresh per rank (pJ)
system.mem_ctrls.dram.rank1.totalEnergy      20399040                       # Total energy per rank (pJ)
system.mem_ctrls.dram.rank1.averagePower   623.004612                       # Core power per rank (mW)
system.mem_ctrls.dram.rank1.totalIdleTime            0                       # Total Idle time Per DRAM Rank
system.mem_ctrls.dram.rank1.pwrStateTime::IDLE       787250                       # Time in different power states
system.mem_ctrls.dram.rank1.pwrStateTime::REF      1040000                       # Time in different power states
system.mem_ctrls.dram.rank1.pwrStateTime::SREF            0                       # Time in different power states
system.mem_ctrls.dram.rank1.pwrStateTime::PRE_PDN            0                       # Time in different power states
system.mem_ctrls.dram.rank1.pwrStateTime::ACT     30915750                       # Time in different power states
system.mem_ctrls.dram.rank1.pwrStateTime::ACT_PDN            0                       # Time in different power states
system.mem_ctrls.power_state.pwrStateResidencyTicks::UNDEFINED     32743000                       # Cumulative time (in ticks) in various power states
system.membus.trans_dist::ReadResp                534                       # Transaction distribution
system.membus.trans_dist::WritebackClean          100                       # Transaction distribution
system.membus.trans_dist::ReadExReq                69                       # Transaction distribution
system.membus.trans_dist::ReadExResp               69                       # Transaction distribution
system.membus.trans_dist::ReadCleanReq            426                       # Transaction distribution
system.membus.trans_dist::ReadSharedReq           108                       # Transaction distribution
system.membus.pkt_count_system.cpu.icache.mem_side_port::system.mem_ctrls.port          952                       # Packet count per connected requestor and responder (bytes)
system.membus.pkt_count_system.cpu.dcache.mem_side_port::system.mem_ctrls.port          354                       # Packet count per connected requestor and responder (bytes)
system.membus.pkt_count::total                   1306                       # Packet count per connected requestor and responder (bytes)
system.membus.pkt_size_system.cpu.icache.mem_side_port::system.mem_ctrls.port        33664                       # Cumulative packet size per connected requestor and responder (bytes)
system.membus.pkt_size_system.cpu.dcache.mem_side_port::system.mem_ctrls.port        11328                       # Cumulative packet size per connected requestor and responder (bytes)
system.membus.pkt_size::total                   44992                       # Cumulative packet size per connected requestor and responder (bytes)
system.membus.snoops                                0                       # Total snoops (count)
system.membus.snoopTraffic                          0                       # Total snoop traffic (bytes)
system.membus.snoop_fanout::samples               603                       # Request fanout histogram
system.membus.snoop_fanout::mean             0.046434                       # Request fanout histogram
system.membus.snoop_fanout::stdev            0.210599                       # Request fanout histogram
system.membus.snoop_fanout::underflows              0      0.00%      0.00% # Request fanout histogram
system.membus.snoop_fanout::0                     575     95.36%     95.36% # Request fanout histogram
system.membus.snoop_fanout::1                      28      4.64%    100.00% # Request fanout histogram
system.membus.snoop_fanout::2                       0      0.00%    100.00% # Request fanout histogram
system.membus.snoop_fanout::overflows               0      0.00%    100.00% # Request fanout histogram
system.membus.snoop_fanout::min_value               0                       # Request fanout histogram
system.membus.snoop_fanout::max_value               1                       # Request fanout histogram
system.membus.snoop_fanout::total                 603                       # Request fanout histogram
system.membus.power_state.pwrStateResidencyTicks::UNDEFINED     32743000                       # Cumulative time (in ticks) in various power states
system.membus.reqLayer0.occupancy              391950                       # Layer occupancy (ticks)
system.membus.reqLayer0.utilization               1.2                       # Layer utilization (%)
system.membus.respLayer1.occupancy             635870                       # Layer occupancy (ticks)
system.membus.respLayer1.utilization              1.9                       # Layer utilization (%)
system.membus.respLayer2.occupancy             264840                       # Layer occupancy (ticks)
system.membus.respLayer2.utilization              0.8                       # Layer utilization (%)
system.voltage_domain.voltage                       1                       # Voltage in Volts

---------- End Simulation Statistics   ----------
